<?xml version="1.0" encoding="UTF-8"?>

<!-- generated on Mon Sep  2 20:36:14 2024 by Eclipse SUMO duarouter Version 1.8.0
<configuration xmlns:xsi="http://www.w3.org/2001/XMLSchema-instance" xsi:noNamespaceSchemaLocation="http://sumo.dlr.de/xsd/duarouterConfiguration.xsd">

    <input>
        <net-file value="test.net.xml"/>
        <route-files value="trips.trips.xml"/>
    </input>

    <output>
        <output-file value="map.rou.xml"/>
        <alternatives-output value="map.rou.alt.xml"/>
    </output>

    <time>
        <begin value="0"/>
        <end value="1000"/>
    </time>

    <report>
        <no-warnings value="true"/>
        <ignore-errors value="true"/>
        <no-step-log value="true"/>
    </report>

</configuration>
-->

<routes xmlns:xsi="http://www.w3.org/2001/XMLSchema-instance" xsi:noNamespaceSchemaLocation="http://sumo.dlr.de/xsd/routes_file.xsd">
    <vehicle id="0" depart="0.00">
        <route edges="30655853#2 30655853#3 81797004#4 81797004#5 669605261 398741947 931164091 667334391#0 160391621#0 160391621#1 160391621#2 160391621#3 160391621#4 160391621#5 160391621#6 160391621#7 398333794#0 398333794#1 398333794#2 647038489#5 667334372#0 667334372#1 667334371 299487094#0 299487094#1 -82202421#3 -153357766"/>
    </vehicle>
    <vehicle id="1" depart="1.00">
        <route edges="-616742655#0 616745019#4 616745019#5 616745019#6 616745019#7 583555958 853263864 647038489#3 81753177#0 81753177#1 81753177#2 81753177#3 -388487062 -330141177#2 -330141177#1 -330141177#0"/>
    </vehicle>
    <vehicle id="2" depart="2.00">
        <route edges="30665279#2 30665279#3 30665279#4 30665279#5 30665279#6 300965437 261432318#3 261432318#4 1171563462#0 1171563462#1 30664649#1"/>
    </vehicle>
    <vehicle id="3" depart="3.00">
        <route edges="654450171 81797004#0 81797004#1 81797004#2 81797004#3 81797004#4 81797004#5 669605261 398741947 931164091 667334391#0 160391621#0 160391621#1 160391621#2 160391621#3 160391621#4 160391621#5 160391621#6 160391621#7 398333794#0 398333794#1 398333794#2 647038489#5 647038489#6 647038489#0 647038489#1 853263865 -583555958 -616745019#7 -616745019#6 154562663#1 154562663#2 154562663#3 616971269 616971271#0 616971271#1 -647043773#4 -261422562#2"/>
    </vehicle>
    <vehicle id="4" depart="4.00">
        <route edges="160391607#0 160391637#3 160391637#4 160391637#5 160391637#6 160391637#7 160391637#8 160391637#9 -667334395 -667334397 667334374 127887328#0 127887328#1 -153357779#1 -153357779#0"/>
    </vehicle>
    <vehicle id="6" depart="6.00">
        <route edges="-127887327 -160391637#5 -160391637#4 -160391637#3 -160391637#2 -160391637#1 -160391637#0 667334392 667334391#0 667334391#1 667334391#2 667334391#3 667334391#4 667334391#5 666426132#0 666426132#1 666426133#0 666426133#1 659328037 659117924#0 659117924#1 858135499 659117922 30622475#0 30622475#1 666426131#0 30664666#0 30664666#1 -30664666#1"/>
    </vehicle>
    <vehicle id="8" depart="8.00">
        <route edges="-30665279#4 -30665279#3 -30665279#2 248261375#1 248261375#2 30622963#1"/>
    </vehicle>
    <vehicle id="9" depart="9.00">
        <route edges="462990973#0 81797004#1 81797004#2 81797004#3 81797004#4 81797004#5 669605261 398741947 667334380 667334379 160391637#0 160391637#1 160391637#2 160391637#3 160391637#4 160391637#5 160391637#6 -127887324#1"/>
    </vehicle>
    <vehicle id="10" depart="10.00">
        <route edges="444901317#2 -444901317#2 -659117933#9 -659117933#8 -659117933#7 -616971271#0 616971270#0 616971270#1 616971270#2 398537157#0 398537157#1 398537157#2 616746142#0 616746142#1 616746142#2 853816905 659117889#0 659117889#1 858135499 659117922 30622475#0 30622475#1 666426131#0 666426131#1 666426131#2 666426131#3 160391608#0 160391608#1 30664671#0 30664671#1 30664671#2 30664671#3"/>
    </vehicle>
    <vehicle id="11" depart="11.00">
        <route edges="-82202421#2 82202421#2 82202421#3 299487094#2 159080682#1 239610044#1 300971768#0 300971768#1 300971768#2 30621729#0 154562663#0 154562663#1 154562663#2 154562663#3 616971269 616971271#0 659117933#7 659117933#8 -30649101#1"/>
    </vehicle>
    <vehicle id="12" depart="12.00">
        <route edges="667351222#0 30665279#5 30665279#6 300965437 261432318#3 261432318#4 1171563463"/>
    </vehicle>
    <vehicle id="13" depart="13.00">
        <route edges="-261422558#1 -543899738 444901317#1 -659117933#9 -659117933#8 -659117933#7 -616971271#0 -616971269 -154562663#3 -154562663#2 -154562663#1 -154562663#0 30621729#1 30621729#2 30621729#3 30621729#4 30621729#5 30621729#6 -30621729#6"/>
    </vehicle>
    <vehicle id="14" depart="14.00">
        <route edges="616746142#1 30649089 659117933#0 659117933#1 30649091#1"/>
    </vehicle>
    <vehicle id="15" depart="15.00">
        <route edges="444901317#2 -444901317#2 -659117933#9 -659117933#8 -659117933#7 -616971271#0 616971270#0 616971270#1 616971270#2 398537157#0 398537157#1 398537157#2 616746142#0 616746142#1 616746142#2 853816905 659117889#0 659117889#1 858135499 659117922 30622475#0 30622475#1 666426131#0 666426131#1 666426131#2 666426131#3 666426130 30665281#0 30665281#1 30665281#2 30665281#3 30665281#4 248261383 1171563462#0 1171563462#1 30664649#1 667351222#0 -30665279#4 -30665279#3 -30665279#2 248261375#1 30665278#2"/>
    </vehicle>
    <vehicle id="16" depart="16.00">
        <route edges="30621735#3 30621735#4 239610044#0 239610044#1 300971768#0 300971768#1 300971768#2 667334399 667334398#0 667334398#1 647038489#1 647038489#2 647038489#3 81753177#0 81753177#1 81753177#2 81753177#3 81753177#4 81753177#5 81753177#6"/>
    </vehicle>
    <vehicle id="17" depart="17.00">
        <route edges="127887328#3 667334373 667334398#0 667334398#1 647038489#1 647038489#2 647038489#3 81753177#0 81753177#1 81753177#2 81753177#3 81753177#4 81753177#5 81753177#6 667334391#2 667334391#3 82009800 666426131#3 160391608#0 160391608#1 30664671#0 30664671#1 30664671#2 30665301#3 30665301#4 303442578#1 303442578#2"/>
    </vehicle>
    <vehicle id="18" depart="18.00">
        <route edges="616742652#2 299487097#2 239610044#0 239610044#1 300971768#0 300971768#1 300971768#2 30621729#0 154562663#0 154562663#1 154562663#2 154562663#3 616971269 616971271#0 -659117933#6 30649096#1"/>
    </vehicle>
    <vehicle id="19" depart="19.00">
        <route edges="616972255#0 616972255#1 261422537#2 616973573 616973575#0 616973575#1 616973575#2 616973574 398537158#0 398537158#1 -154562663#3 -154562663#2 -154562663#1 -154562663#0 30621729#1 30621729#2 30621729#3 30621729#4 30621729#5 30621729#6 30621729#7 30621729#8"/>
    </vehicle>
    <vehicle id="20" depart="20.00">
        <route edges="30664671#2 30665301#3 30664670#1 666426136 30655851#0 30655851#1 81797004#5 669605261 398741947 667334380 81747317#0 158030657 -158030657"/>
    </vehicle>
    <vehicle id="21" depart="21.00">
        <route edges="-326104351#1 326104351#1 326104351#2 -30621729#2 -30621729#1 154562663#0 154562663#1 154562663#2 154562663#3 616971269 616971271#0 -659117933#6 -659117933#5 -659117933#4 -659117933#3 -659117933#2"/>
    </vehicle>
    <vehicle id="22" depart="22.00">
        <route edges="-205366193#1 127887328#1 127887328#2 127887328#3 667334371 667334400 30621729#0 154562663#0 154562663#1 154562663#2 154562663#3 616971269 616971271#0 659117933#7 659117933#8 659117933#9 444901317#2 -444901317#2"/>
    </vehicle>
    <vehicle id="23" depart="23.00">
        <route edges="-261422558#4 647043773#1 647043773#2 -647043773#2"/>
    </vehicle>
    <vehicle id="24" depart="24.00">
        <route edges="30655853#1 153734599#3 666426134 666426131#2 666426131#3 160391608#0 160391608#1 160391608#2 931164089 398741947 667334380 -667334393 1171661490#2"/>
    </vehicle>
    <vehicle id="25" depart="25.00">
        <route edges="127887324#1 -160391637#6 -160391637#5 -160391637#4 -160391637#3 -160391637#2 -160391637#1 -160391637#0 667334392 667334391#0 667334391#1 667334391#2 667334391#3 82009800 666426131#3 666426130 30665281#0 30665281#1 30665281#2 30665281#3 30665281#4 248261383 1171563462#0 1171563462#1 30664649#1 667351222#0 -30665279#4 -30665279#3"/>
    </vehicle>
    <vehicle id="26" depart="26.00">
        <route edges="-616742652#0 616742652#0 -30621729#6 -30621729#5 -30621729#4 -30621729#3 -30621729#2 -30621729#1 -30621729#0 667334399 -667334373 -127887328#3 -127887328#2 -127887328#1 -127887328#0 -667334374 667334397 667334396 667334378#1"/>
    </vehicle>
    <vehicle id="28" depart="28.00">
        <route edges="-30649096#1 -30649096#0 616971270#1 616971270#2 398537157#0 398537157#1 398537157#2 616746142#0 616746142#1 616746142#2 853816905 659117889#0 659117889#1 858135499 659117922 30622475#0 30622475#1 666426131#0 666426131#1 666426131#2 666426131#3 666426130 30665281#0 30665281#1 30665281#2 30665281#3 30665281#4 248261383 1171563462#0 1171563462#1 30664649#1 667351222#0 667351222#1 330066654#0 30665277#2 30665277#3"/>
    </vehicle>
    <vehicle id="29" depart="29.00">
        <route edges="-30649092#1 659117933#3 659117933#4 659117933#5 659117933#6 -616971271#0 -616971269 -154562663#3 -154562663#2 -154562663#1 616745019#6 616745019#7 583555958 853263864 647038489#3 81753177#0 81753177#1 81753177#2 81753177#3 -388487062 160391621#4 127887324#0"/>
    </vehicle>
    <vehicle id="30" depart="30.00">
        <route edges="853727291#1 -82009801 82009805#1 30622475#0 30622475#1 659117926 659328037 261422537#0 261422537#1 261422537#2 616973573 616973575#0 616973575#1 616973575#2 616973574 398537158#0 398537158#1 -154562663#3 -154562663#2 -154562663#1 -154562663#0 30621729#1 30621729#2 30621729#3 30621729#4 30621729#5 -30652340#0 30652340#0"/>
    </vehicle>
    <vehicle id="31" depart="31.00">
        <route edges="30622469#1 398537157#0 398537157#1 398537157#2 616746142#0 616746142#1 616746142#2 853816905 659117889#0 659117889#1 858135499 659117922 30622475#0 30622475#1 666426131#0 666426131#1 666426131#2 666426131#3 666426130 30665281#0 30665281#1 30664664#3"/>
    </vehicle>
    <vehicle id="32" depart="32.00">
        <route edges="616745019#5 154562663#1 154562663#2 154562663#3 616971269 616971270#0 616971270#1 616971270#2 398537157#0 398537157#1 398537157#2 616746142#0 616746142#1 616746142#2 853816905 659117889#0 659117889#1 858135499 659117922 30622475#0 30622475#1 666426131#0 666426131#1 666426131#2 666426131#3 666426130 30665281#0 30665281#1 30665281#2 30665281#3 30665281#4 1171563461#0 330239341#0 330239341#1"/>
    </vehicle>
    <vehicle id="33" depart="33.00">
        <route edges="-326104353 667334398#1 647038489#1 647038489#2 647038489#3 81753177#0 81753177#1 81753177#2 81753177#3 -388487062 -330141177#2 -153357784#0"/>
    </vehicle>
    <vehicle id="34" depart="34.00">
        <route edges="-659117933#12 -659117933#11 -659117933#10 -659117933#9 -659117933#8 -659117933#7 -616971271#0"/>
    </vehicle>
    <vehicle id="35" depart="35.00">
        <route edges="-30664666#0 666426131#1 666426131#2 666426131#3 160391608#0 160391608#1 160391608#2 931164089 398741947 931164091 667334391#0 667334391#1 667334391#2 667334391#3"/>
    </vehicle>
    <vehicle id="36" depart="36.00">
        <route edges="617806431#4 1171563461#0 1171563461#1 1171563461#2 30655852#0 30655852#1 30655852#2 30655852#3 30655852#4 30655852#5 30655852#6 853727292 853727291#0 853727291#1 -82009801 82009805#1 30622475#0 30622475#1 659117926 659328037 261422537#0 261422537#1 261422537#2 616973573 616973575#0 616973575#1 616973575#2 616973574 398537158#0 398537158#1 616971268#0 616971268#1 931172667 -30649159#3 543899770#1 261422561#1 444901314 616742656 1163801976"/>
    </vehicle>
    <vehicle id="38" depart="38.00">
        <route edges="665856992 616972255#0 616972255#1 261422537#2 616973573 616973575#0 616973575#1 616973575#2 616973574 398537159#0 398537159#1 583555958 853263864 647038489#3 647038489#4 647038489#5 667334372#0 667334372#1 -127887328#3 -127887328#2 -127887328#1 205366193#1"/>
    </vehicle>
    <vehicle id="39" depart="39.00">
        <route edges="-543899770#1 -30649159#2 -30649159#1 30621729#5 30621729#6 -616742652#0"/>
    </vehicle>
    <vehicle id="41" depart="41.00">
        <route edges="30649098#0 616745019#5 154562663#1 154562663#2 154562663#3 616971269 616971271#0 659117933#7 659117933#8 659117933#9 659117933#10 659117933#11 659117933#12"/>
    </vehicle>
    <vehicle id="42" depart="42.00">
        <route edges="153357789#1 330141176#1 330141176#2 667334392 667334391#0 160391621#0 160391621#1 160391621#2 160391621#3 160391621#4 160391621#5 160391621#6 160391621#7 398333794#0 398333794#1 398333794#2 647038489#5 647038489#6 647038489#0 647038489#1 853263865 -583555958 -616745019#7 -326104353"/>
    </vehicle>
    <vehicle id="43" depart="43.00">
        <route edges="931172667 -30649159#3 543899770#1 261422561#1 444901314 931172668#0 261422562#0 261422562#1 261422562#2 261422562#3"/>
    </vehicle>
    <vehicle id="44" depart="44.00">
        <route edges="-239610042#2 -30621729#7 -30621729#6 -30621729#5 -30621729#4 -30621729#3 -30621729#2 -30621729#1 -30621729#0 -667334400 299487094#0 299487094#1 299487094#2 -159080682#0"/>
    </vehicle>
    <vehicle id="45" depart="45.00">
        <route edges="-261422562#2 261422562#2 -647043773#3 30649101#1"/>
    </vehicle>
    <vehicle id="46" depart="46.00">
        <route edges="398333794#1 398333794#2 647038489#5 647038489#6 647038489#0 647038489#1 853263865 -583555958 -616745019#7 -616745019#6 154562663#1"/>
    </vehicle>
    <vehicle id="47" depart="47.00">
        <route edges="-159541393#3 159541393#3 30655851#1 81797004#5 669605261 398741947 931164091 667334391#0 160391621#0 160391621#1 160391621#2 160391621#3 160391621#4 127887324#0 127887324#1"/>
    </vehicle>
    <vehicle id="48" depart="48.00">
        <route edges="931172097#0 931172097#1 444901316 931172668#0 931172668#1 616971271#0 -616971271#0 -616971269 -154562663#3 -154562663#2 -154562663#1 -154562663#0 -30621729#0 -667334400 299487094#0 299487094#1 299487094#2 299487094#3 299487094#4"/>
    </vehicle>
    <vehicle id="49" depart="49.00">
        <route edges="81753177#3 81753177#4 81753177#5 81753177#6 667334391#2 667334391#3 667334391#4 667334391#5 666426132#0 666426132#1 666426133#0 666426133#1 659328037 261422537#0 261422537#1 261422537#2 616973573 616973575#0 616973575#1 616973575#2 616973574"/>
    </vehicle>
    <vehicle id="50" depart="50.00">
        <route edges="-127887322 -160391637#7 -160391637#6 -160391637#5 -160391637#4 -160391637#3 -160391637#2 -160391637#1 -160391637#0 667334392 398537161 931164089 931164090#0 931164090#1 30664673#0 30664673#1"/>
    </vehicle>
    <vehicle id="51" depart="51.00">
        <route edges="30664666#2 -30664666#2 30655853#1 30655853#2 30655853#3 30655853#4 669605262 669605263 303442578#0 303442578#1"/>
    </vehicle>
    <vehicle id="52" depart="52.00">
        <route edges="-616742652#0 616742652#0 -30621729#6 30652340#1"/>
    </vehicle>
    <vehicle id="53" depart="53.00">
        <route edges="-261422562#3 647043773#4 -616971271#1 -616971271#0 -616971269 -154562663#3 -154562663#2 -154562663#1 616745019#6 616745019#7 583555958 853263864 647038489#3 81753177#0 81753177#1 81753177#2 81753177#3 81753177#4 81753177#5 388484438 160391621#1 160391607#0"/>
    </vehicle>
    <vehicle id="54" depart="54.00">
        <route edges="239610042#2 616745019#0 616745019#1 616745019#2 616745019#3 616745019#4 616745019#5 154562663#1 154562663#2 154562663#3 616971269 616971270#0 616971270#1 616971270#2 398537157#0 398537157#1 398537157#2 616746142#0 616746142#1 616746142#2 853816905 659117889#0 659117889#1 858135499 659117922 30622475#0 30622475#1 666426131#0 666426131#1 666426131#2 666426131#3 666426130 30665281#0 30665281#1 30665281#2 30665281#3 30665281#4 248261383 1171563462#0 1171563462#1 30664649#1 667351222#0"/>
    </vehicle>
    <vehicle id="55" depart="55.00">
        <route edges="617806431#3 159541393#0 159541393#1 -462990973#1 81797004#1 81797004#2 81797004#3 81797004#4 81797004#5 669605261 398741947 931164091 667334391#0 160391621#0 160391621#1 160391621#2 160391621#3 160391621#4 160391621#5 160391621#6 160391621#7 398333794#0 398333794#1 398333794#2 647038489#5 647038489#6 647038489#0 647038489#1 853263865 -583555958 -616745019#7 -616745019#6 -616745019#5"/>
    </vehicle>
    <vehicle id="56" depart="56.00">
        <route edges="300971768#2 30621729#0 154562663#0 154562663#1 154562663#2 154562663#3 616971269 616971270#0 616971270#1 616971270#2 398537157#0 398537157#1 398537157#2 616746142#0 616746142#1 616746142#2 853816905 659117889#0 659117889#1 858135499 659117922 30622475#0 30664663 666426128 -853727292 -30655852#6 -30655852#5"/>
    </vehicle>
    <vehicle id="57" depart="57.00">
        <route edges="665856992 616972255#0 616746142#1 616746142#2 853816905 659117889#0 659117889#1 858135499 659117922 30622475#0 30622475#1 666426131#0 666426131#1 666426131#2 666426131#3 666426130 30665281#0 30655853#3 30655853#4 -159541393#2 -159541393#1 -159541393#0 617806431#4"/>
    </vehicle>
    <vehicle id="58" depart="58.00">
        <route edges="-647043773#3 647043773#3 647043773#4 -616971271#1 -616971271#0 -616971269 -154562663#3 -154562663#2 -154562663#1 -154562663#0 30621729#1 30621729#2 30621729#3 30621729#4 30621729#5 -30652340#0 30652340#0"/>
    </vehicle>
    <vehicle id="59" depart="59.00">
        <route edges="30652340#0 -30621729#5 -30621729#4 -616742655#0 261422561#0 261422561#1 444901314 616742656 1163801976 -30649101#1 -30649101#0"/>
    </vehicle>
    <vehicle id="60" depart="60.00">
        <route edges="30665301#4 303442578#1"/>
    </vehicle>
    <vehicle id="61" depart="61.00">
        <route edges="330141177#0 330141177#1 330141177#2 160391621#4 160391621#5 160391621#6 160391621#7 398333794#0 398333794#1 398333794#2 647038489#5 667334372#0 667334372#1 667334371 667334400 30621729#0 30621729#1 30621729#2 30621729#3 30621729#4 30621729#5 30621729#6 30621729#7 -239610042#1 -239610042#0 299487097#1"/>
    </vehicle>
    <vehicle id="62" depart="62.00">
        <route edges="-127887320 398195264 81753177#3 81753177#4 81753177#5 81753177#6 667334391#2 667334391#3 82009800 666426131#3 666426130 30665281#0 30665281#1 30665281#2 30665281#3 30665281#4 248261383 1171563462#0 1171563462#1 1171563462#2"/>
    </vehicle>
    <vehicle id="63" depart="63.00">
        <route edges="-127887326 160391621#6 160391621#7 398195264 81753177#3 81753177#4 81753177#5 81753177#6 667334391#2 667334391#3 82009800 666426131#3 666426130 666426129 666426135#0"/>
    </vehicle>
    <vehicle id="64" depart="64.00">
        <route edges="617806431#4 1171563461#0 1171563461#1 153734599#0 153734599#1 153734599#2 153734599#3 666426134 666426131#2 666426131#3 160391608#0 160391608#1 160391608#2 931164089 398741947 931164091 667334391#0 160391621#0 160391621#1 160391621#2 160391621#3 160391621#4 160391621#5 160391621#6 160391621#7 398333794#0 398333794#1 398333794#2 647038489#5 667334372#0 667334372#1 667334371 667334400 30621729#0 30621729#1 30621729#2 30621729#3 30621729#4 30621729#5 30621729#6 30621729#7 239610042#2 616745019#0"/>
    </vehicle>
    <vehicle id="65" depart="65.00">
        <route edges="-659117933#11 -659117933#10 -659117933#9 -659117933#8 -659117933#7 -616971271#0 616971270#0 616971270#1 616971270#2 398537157#0 398537157#1 398537157#2 616746142#0 616746142#1 616746142#2 853816905 659117889#0 659117889#1 858135499 659117922 30622475#0 30622475#1 666426131#0 666426131#1 666426131#2 666426131#3 160391608#0 160391608#1 160391608#2 931164089 398741947 667334380 667334379 160391637#0 160391637#1 -160391637#1"/>
    </vehicle>
    <vehicle id="66" depart="66.00">
        <route edges="617806431#4 1171563461#0 1171563461#1 153734599#0 153734599#1 153734599#2 153734599#3 666426134 666426131#2 666426131#3 160391608#0 160391608#1 160391608#2 931164089 398741947 667334380 -667334393 667334393"/>
    </vehicle>
    <vehicle id="67" depart="67.00">
        <route edges="-239610042#1 239610042#1 -30621729#7 -30621729#6 -30621729#5 -30621729#4 -616742655#0 261422561#0 261422561#1 444901314 616742656 1163801976 659117933#9 659117933#10 261422558#3"/>
    </vehicle>
    <vehicle id="68" depart="68.00">
        <route edges="-160391607#1 -160391637#2 -160391637#1 -160391637#0 667334392 667334391#0 667334391#1 667334391#2 667334391#3 82009800 666426131#3 666426130 30665281#0 30665281#1 30665281#2 30665281#3 30665281#4 248261383 1171563462#0 1171563462#1 30664649#1 667351222#0 667351222#1 330066654#0"/>
    </vehicle>
    <vehicle id="69" depart="69.00">
        <route edges="30665301#7 30665301#8 617806431#2 617806431#3 617806431#4 248261383 1171563462#0 1171563462#1 30664649#1 667351222#0 667351222#1 330066654#0 330066654#1 -30622963#2 -30622963#1"/>
    </vehicle>
    <vehicle id="70" depart="70.00">
        <route edges="261422561#0 261422561#1 444901314 931172668#0 931172668#1 616971270#0 616971270#1 616971270#2 398537157#0 398537157#1 398537157#2 616746142#0 616746142#1 616746142#2 853816905 659117889#0 659117889#1 858135499 659117922 30622475#0 30622475#1 666426131#0 666426131#1 666426131#2 666426131#3 160391608#0 160391608#1 30664671#0 30664671#1 30664671#2 30665301#3 30665301#4 303442578#1 303442578#2"/>
    </vehicle>
    <vehicle id="71" depart="71.00">
        <route edges="-583555958 -616745019#7 -616745019#6 154562663#1 154562663#2 154562663#3 616971269 616971271#0 659117933#7 659117933#8 659117933#9 659117933#10 261422558#3 647043773#1"/>
    </vehicle>
    <vehicle id="72" depart="72.00">
        <route edges="160391607#0 -160391637#2 -160391637#1 -160391637#0 667334392 667334391#0 667334391#1 667334391#2 667334391#3 82009800 666426131#3 160391608#0 -30665288"/>
    </vehicle>
    <vehicle id="73" depart="73.00">
        <route edges="30622468#0 30622468#1 398537157#1 398537157#2 616746142#0 616746142#1 616746142#2 853816905 659117889#0 659117889#1 858135499 659117922 30622475#0 30622475#1 666426131#0 666426131#1 666426131#2 666426131#3 666426130 30665281#0 30665281#1 30665281#2 30665281#3 30665281#4 248261383 1171563462#0 1171563462#1 30664649#1 667351222#0 -30665279#4 -30665279#3 -30665279#2 248261375#1 30665278#2"/>
    </vehicle>
    <vehicle id="74" depart="74.00">
        <route edges="-30655852#5 30655852#5 30655852#6 853727292 853727291#0 -853727291#0"/>
    </vehicle>
    <vehicle id="76" depart="76.00">
        <route edges="160391637#4 -160391637#4 -160391637#3 -160391637#2 -160391637#1 -160391637#0 667334392 667334391#0 667334391#1 667334391#2 667334391#3 667334391#4 667334391#5 666426132#0 666426132#1 666426133#0 666426133#1 659328037 659117924#0 659117924#1 858135499 659117922 30622475#0 30622475#1 666426131#0 30664666#0 30664666#1 30664666#2 -30655852#3 -30655852#2 303649871#0 303649871#1 1171563461#4 1171563461#5 292932042#0 292932042#1"/>
    </vehicle>
    <vehicle id="77" depart="77.00">
        <route edges="-30621729#3 -30621729#2 -30621729#1 -30621729#0 667334399 667334398#0 667334398#1 647038489#1 647038489#2 647038489#3 81753177#0 81753177#1 81753177#2 81753177#3 -388487062 -330141177#2 -330141177#1 -330141177#0"/>
    </vehicle>
    <vehicle id="78" depart="78.00">
        <route edges="-82009801 82009805#1 30622475#0 30622475#1 659117926 659328037 659117924#0 659117924#1 858135499 30621187#0 30621187#1 659117930#0 659117930#1 659117933#0 659117933#1 659117933#2 659117933#3 659117933#4 30622469#1"/>
    </vehicle>
    <vehicle id="79" depart="79.00">
        <route edges="-330066655#0"/>
    </vehicle>
    <vehicle id="80" depart="80.00">
        <route edges="-160391637#2 160391637#2 -160391607#0 160391621#2 160391621#3 160391621#4 160391621#5 160391621#6 160391621#7 398333794#0 398333794#1 398333794#2 647038489#5 667334372#0 667334372#1 667334371 667334400 30621729#0 30621729#1 30621729#2 30621729#3 30621729#4 -30649159#0 30649159#0"/>
    </vehicle>
    <vehicle id="81" depart="81.00">
        <route edges="-326104353 326104353 -616745019#6 154562663#1 154562663#2 154562663#3 616971269 616971271#0 -659117933#6 -659117933#5 -659117933#4 -659117933#3 -659117933#2 -659117933#1 -659117933#0 659117938"/>
    </vehicle>
    <vehicle id="82" depart="82.00">
        <route edges="616971271#2 616971271#3 -616971271#3 -616971271#2 -616971271#1 -616971271#0 -616971269 -154562663#3 -154562663#2 -154562663#1 -154562663#0 30621729#1 30621729#2 30621729#3 30621729#4 30621729#5 30621729#6 30621729#7 -239610042#1 -239610042#0"/>
    </vehicle>
    <vehicle id="83" depart="83.00">
        <route edges="-330141177#1 -160391637#4 -160391637#3 -160391637#2 -160391637#1 -160391637#0 667334392 667334391#0 667334391#1 667334391#2 667334391#3 82009800 666426131#3 666426130 30665281#0 30665281#1 -30664664#2 -30664664#1 153734599#2 30655853#2"/>
    </vehicle>
    <vehicle id="85" depart="85.00">
        <route edges="666426135#0 -30664666#0 666426131#1 666426131#2 666426131#3 160391608#0 160391608#1 160391608#2 931164089 398741947 931164091 667334391#0 160391621#0 160391621#1 160391621#2 160391621#3 160391621#4 160391621#5 160391621#6 160391621#7 398333794#0 398333794#1 398333794#2 647038489#5 667334372#0 667334372#1 667334371 667334400 30621729#0 30621729#1 30621729#2 30621729#3 30621729#4 30621729#5 30621729#6 30621729#7 30621729#8"/>
    </vehicle>
    <vehicle id="86" depart="86.00">
        <route edges="261422558#3 -261422558#3 -659117933#10 -659117933#9 -659117933#8 -659117933#7 -616971271#0 616971270#0 616971270#1 616971270#2 398537157#0 398537157#1 398537157#2 616746142#0 616972255#1 261422537#2 616973573 616973575#0 616973575#1 616973575#2 616973574 398537158#0 398537158#1"/>
    </vehicle>
    <vehicle id="87" depart="87.00">
        <route edges="444901317#2 -444901317#2 -659117933#9 -659117933#8 -659117933#7 -616971271#0 616971270#0 616971270#1 616971270#2 398537157#0 398537157#1 398537157#2 616746142#0 616746142#1 616746142#2 853816905 659117889#0 659117889#1 858135499 659117922 30622475#0 30622475#1 666426131#0 30664666#0 30664666#1 30664666#2 -30655852#3 30664664#0 -30664664#0"/>
    </vehicle>
    <vehicle id="88" depart="88.00">
        <route edges="-261422558#4 -261422558#3 -659117933#10 -659117933#9 -659117933#8 -659117933#7 -616971271#0 616971270#0 616971270#1 616971270#2 398537157#0 398537157#1 398537157#2 616746142#0 616746142#1 616746142#2 853816905 659117889#0 659117889#1 858135499 659117922 30622475#0 30622475#1 666426131#0 666426131#1 666426131#2 666426131#3 666426130 30665281#0 30655853#3 30655853#4 159541393#3"/>
    </vehicle>
    <vehicle id="89" depart="89.00">
        <route edges="160391607#0 -160391607#0 160391621#2 160391621#3 160391621#4 160391621#5 160391621#6 160391621#7 398333794#0 398333794#1 398333794#2 647038489#5 667334372#0 667334372#1 667334371 667334400 30621729#0 30621729#1 30621729#2 30621729#3 30621729#4 30621729#5 30621729#6 30621729#7 239610042#2"/>
    </vehicle>
    <vehicle id="91" depart="91.00">
        <route edges="82009805#0 82009805#1 30622475#0 30622475#1 659117926 659328037 261422537#0 261422537#1 261422537#2 616973573 616973575#0 616973575#1 616973575#2 616973574 398537158#0 398537158#1 -154562663#3 -154562663#2 -154562663#1 -154562663#0 30621729#1 30621729#2 30621729#3 30621729#4 30621729#5 30621729#6 30621729#7 -239610042#1 -30621735#0"/>
    </vehicle>
    <vehicle id="92" depart="92.00">
        <route edges="153734599#2 30655853#2 30665281#1 30665281#2 30665281#3 30665281#4 248261383 1171563463"/>
    </vehicle>
    <vehicle id="93" depart="93.00">
        <route edges="616972255#0 616972255#1 261422537#2 616973573 616973575#0 616973575#1 616973575#2 616973574 398537158#0 398537158#1 -154562663#3 -154562663#2 -154562663#1 -154562663#0 30621729#1 30621729#2 30621729#3 30621729#4 30621729#5 30621729#6 -616742652#0"/>
    </vehicle>
    <vehicle id="94" depart="94.00">
        <route edges="-30652340#0 30621735#3 30621735#4 239610044#0 239610044#1 300971768#0 300971768#1 300971768#2 667334399 667334398#0 667334398#1 647038489#1 647038489#2 647038489#3 81753177#0 81753177#1 81753177#2 81753177#3 -388487062 -330141177#2 -153357784#0 -153357770#0 -160391637#3 -160391637#2 160391637#2"/>
    </vehicle>
    <vehicle id="95" depart="95.00">
        <route edges="160391607#0 -160391607#0 160391621#2 160391621#3 160391621#4 160391621#5 160391621#6 160391621#7 398333794#0 398333794#1 398333794#2 647038489#5 647038489#6 647038489#0 647038489#1 853263865 -583555958 -616745019#7 -616745019#6 154562663#1 154562663#2 154562663#3 616971269 616971271#0 616971271#1 -647043773#4 -647043773#3"/>
    </vehicle>
    <vehicle id="96" depart="96.00">
        <route edges="-444901317#3 -444901317#2 -659117933#9 -659117933#8 -659117933#7 -616971271#0 616971270#0 616971270#1 616971270#2 398537157#0 398537157#1 398537157#2 616746142#0 616746142#1 616746142#2 853816905 659117889#0 659117889#1 858135499 659117922 30622475#0 30622475#1 666426131#0 666426131#1 463262053 666426132#0 666426132#1 666426133#0"/>
    </vehicle>
    <vehicle id="97" depart="97.00">
        <route edges="205366193#0 127887328#1 127887328#2 127887328#3 667334371 667334400 30621729#0 154562663#0 154562663#1 154562663#2 154562663#3 616971269 616971270#0 616971270#1 616971270#2 398537157#0 398537157#1 398537157#2 616746142#0 616972255#1 261422537#2 616973573 616973575#0 616973575#1"/>
    </vehicle>
    <vehicle id="98" depart="98.00">
        <route edges="30622469#0 30622469#1 398537157#0 398537157#1 398537157#2 616746142#0 616746142#1 616746142#2 853816905 659117889#0 659117889#1 858135499 659117922 30622475#0 30622475#1 666426131#0 666426131#1 666426131#2 666426131#3 666426130 30665281#0 30655853#3 30655853#4 -159541393#2"/>
    </vehicle>
    <vehicle id="99" depart="99.00">
        <route edges="931172668#1 616971271#0 -616971271#0 -616971269 -154562663#3 -154562663#2 -154562663#1 -616745019#5 -616745019#4 616745019#4"/>
    </vehicle>
    <vehicle id="100" depart="100.00">
        <route edges="81753177#1 81753177#2 81753177#3 81753177#4 81753177#5 81753177#6 667334391#2 667334391#3 82009800 666426131#3 666426130 666426129 666426134"/>
    </vehicle>