<?xml version="1.0" encoding="UTF-8"?>

<!-- generated on Mon Sep  2 20:11:12 2024 by Eclipse SUMO polyconvert Version 1.8.0
<configuration xmlns:xsi="http://www.w3.org/2001/XMLSchema-instance" xsi:noNamespaceSchemaLocation="http://sumo.dlr.de/xsd/polyconvertConfiguration.xsd">

    <input>
        <net-file value="test.net.xml"/>
        <osm-files value="map-osm.osm"/>
        <type-file value="typemap.xml"/>
    </input>

    <output>
        <output-file value="map.poly.xml"/>
    </output>

    <processing>
        <poi-layer-offset value="5"/>
    </processing>

    <report>
        <xml-validation value="never"/>
    </report>

</configuration>
-->

<additional> <!-- xmlns:xsi="http://www.w3.org/2001/XMLSchema-instance" xsi:noNamespaceSchemaLocation="http://sumo.dlr.de/xsd/additional_file.xsd"-->
    <location netOffset="-785145.54,2095530.41" convBoundary="0.00,0.00,7245.17,4132.82" origBoundary="-48.292710,-18.932213,-48.224047,-18.894446" projParameter="+proj=utm +zone=22 +ellps=WGS84 +datum=WGS84 +units=m +no_defs"/>

    <poly id="1046587510" type="building" color="255,230,230" fill="1" layer="-1.00" shape="2861.095160,1488.438490 2870.141702,1481.718454 2872.508534,1485.470262 2877.223746,1482.251275 2875.118347,1478.362491 2883.832414,1471.957761 2896.703591,1490.966587 2888.183597,1496.969531 2885.160387,1493.039574 2880.258546,1496.460846 2883.268643,1500.224846 2874.057482,1506.526497 2861.095160,1488.438490"/>
    <poly id="1065327011" type="leisure" color="207,245,201" fill="1" layer="-2.00" shape="3813.164174,1407.129621 3824.570619,1359.618471 3858.628685,1367.519213 3845.322681,1421.684225 3811.292618,1414.912910 3813.164174,1407.129621"/>
    <poly id="1065327011#1" type="sport" color="79,230,125" fill="1" layer="-2.00" shape="3813.164174,1407.129621 3824.570619,1359.618471 3858.628685,1367.519213 3845.322681,1421.684225 3811.292618,1414.912910 3813.164174,1407.129621"/>
    <poly id="1077748144" type="building" color="255,230,230" fill="1" layer="-1.00" shape="3839.446466,1654.833935 3865.658031,1647.580840 3872.630167,1669.527712 3846.159205,1677.050701 3839.446466,1654.833935"/>
    <poly id="1082198894" type="building" color="255,230,230" fill="1" layer="-1.00" shape="4035.169980,1722.942754 4031.650655,1711.532291 4052.478777,1705.193432 4055.997943,1716.592818 4035.169980,1722.942754"/>
    <poly id="1082198895" type="building" color="255,230,230" fill="1" layer="-1.00" shape="3993.944757,1685.355270 3999.148588,1683.734616 3996.365545,1674.926985 3991.172256,1676.547475 3993.944757,1685.355270"/>
    <poly id="1082198896" type="building" color="255,230,230" fill="1" layer="-1.00" shape="4037.891053,1737.256844 4034.464959,1727.096685 4056.237936,1719.823707 4059.664214,1729.994938 4037.891053,1737.256844"/>
    <poly id="1082198896#1" type="residential" color="235,235,227" fill="1" layer="-3.00" shape="4037.891053,1737.256844 4034.464959,1727.096685 4056.237936,1719.823707 4059.664214,1729.994938 4037.891053,1737.256844"/>
    <poly id="1112079858" type="building" color="255,230,230" fill="1" layer="-1.00" shape="3816.744397,1361.401684 3795.225949,1355.853875 3785.504908,1393.103256 3794.273902,1392.967029 3790.203876,1408.527603 3803.540461,1411.964894 3816.744397,1361.401684"/>
    <poly id="1155879578" type="building" color="255,230,230" fill="1" layer="-1.00" shape="3964.050375,1258.994350 4062.940431,1299.296396 4091.937636,1236.656522 4003.175532,1158.855062 3964.050375,1258.994350"/>
    <poly id="1155880619" type="building" color="255,230,230" fill="1" layer="-1.00" shape="3988.333736,1356.951476 4017.324150,1285.715764 4062.940431,1299.296396 4031.621997,1365.893706 3988.333736,1356.951476"/>
    <poly id="1155880619#1" type="shop" color="237,199,255" fill="1" layer="-1.00" shape="3988.333736,1356.951476 4017.324150,1285.715764 4062.940431,1299.296396 4031.621997,1365.893706 3988.333736,1356.951476"/>
    <poly id="1155881922" type="tourism" color="207,245,201" fill="1" layer="-2.00" shape="3502.280529,1605.180371 3497.935910,1598.989050 3498.545935,1581.233563 3511.370406,1586.994199 3514.316287,1598.158830 3511.559358,1608.680850 3502.280529,1605.180371"/>
    <poly id="1155910659" type="amenity" color="237,199,199" fill="1" layer="-1.00" shape="2851.866728,980.340860 2860.283289,991.498340 2877.349167,979.835397 2867.831340,967.000144 2851.866728,980.340860"/>
    <poly id="1155910659#1" type="building" color="255,230,230" fill="1" layer="-1.00" shape="2851.866728,980.340860 2860.283289,991.498340 2877.349167,979.835397 2867.831340,967.000144 2851.866728,980.340860"/>
    <poly id="1155911442" type="amenity" color="237,199,199" fill="1" layer="-1.00" shape="3167.837268,1227.056331 3158.321450,1248.372746 3140.817514,1222.944547 3143.902209,1215.197943 3167.837268,1227.056331"/>
    <poly id="1155911442#1" type="building" color="255,230,230" fill="1" layer="-1.00" shape="3167.837268,1227.056331 3158.321450,1248.372746 3140.817514,1222.944547 3143.902209,1215.197943 3167.837268,1227.056331"/>
    <poly id="1155911526" type="tourism" color="207,245,201" fill="1" layer="-2.00" shape="3114.651314,1186.163357 3162.002925,1152.640245 3173.426184,1214.241762 3114.651314,1186.163357"/>
    <poly id="1218285293" type="building" color="255,230,230" fill="1" layer="-1.00" shape="3172.829465,1277.070902 3181.961797,1269.097606 3188.298638,1278.005283 3185.763283,1279.706199 3191.588010,1286.860509 3189.063299,1289.248059 3194.704433,1297.479722 3186.815508,1302.697630 3175.436954,1286.822892 3178.469043,1285.202896 3172.829465,1277.070902"/>
    <poly id="1218285294" type="building" color="255,230,230" fill="1" layer="-1.00" shape="3186.654885,1333.816515 3181.279573,1326.411531 3193.002814,1319.638734 3188.803852,1313.312178 3198.210479,1308.070739 3206.215395,1321.893068 3186.654885,1333.816515"/>
    <poly id="1218285295" type="building" color="255,230,230" fill="1" layer="-1.00" shape="3149.530204,1292.630271 3160.386850,1285.040122 3176.792370,1308.292019 3166.257462,1315.555944 3152.104436,1296.157286 3149.530204,1292.630271"/>
    <poly id="1218285296" type="building" color="255,230,230" fill="1" layer="-1.00" shape="3114.723285,1320.032458 3126.895458,1336.781117 3147.455060,1322.660008 3135.275320,1305.424073 3114.723285,1320.032458"/>
    <poly id="1218285297" type="building" color="255,230,230" fill="1" layer="-1.00" shape="3134.069341,1341.200573 3142.957857,1352.860214 3164.764602,1336.903063 3164.452602,1336.498036 3155.773944,1325.455484 3134.069341,1341.200573"/>
    <poly id="1218285298" type="building" color="255,230,230" fill="1" layer="-1.00" shape="3189.634876,1373.715391 3202.290359,1364.513268 3177.285972,1327.891350 3164.452602,1336.498036 3189.634876,1373.715391"/>
    <poly id="1218285299" type="building" color="255,230,230" fill="1" layer="-1.00" shape="3205.102331,1362.974223 3201.468520,1358.422366 3208.851225,1353.190149 3212.270745,1358.199501 3205.102331,1362.974223"/>
    <poly id="1218285300" type="building" color="255,230,230" fill="1" layer="-1.00" shape="3214.254649,1348.808343 3209.868326,1341.277259 3217.633986,1336.947445 3221.604567,1344.861606 3214.254649,1348.808343"/>
    <poly id="1218285301" type="building" color="255,230,230" fill="1" layer="-1.00" shape="3197.563601,1345.223267 3191.602450,1335.390342 3213.675500,1323.693793 3217.159391,1329.455408 3213.793808,1331.324283 3215.810319,1334.915326 3197.563601,1345.223267"/>
    <poly id="1218285302" type="building" color="255,230,230" fill="1" layer="-1.00" shape="3119.867098,1226.127265 3128.845326,1229.975956 3136.853167,1215.429066 3130.382420,1212.161844 3129.372828,1214.359740 3126.854880,1213.102716 3119.867098,1226.127265"/>
    <poly id="1218285303" type="building" color="255,230,230" fill="1" layer="-1.00" shape="3111.397480,1214.283891 3120.073898,1217.705245 3123.241990,1210.577687 3124.706227,1211.186401 3126.268128,1207.894361 3120.777320,1205.276590 3119.255172,1208.412930 3115.243088,1206.658428 3111.397480,1214.283891"/>
    <poly id="1218285304" type="building" color="255,230,230" fill="1" layer="-1.00" shape="3156.685248,1380.163660 3164.177035,1390.127951 3175.339904,1382.566287 3172.313895,1378.459175 3174.225989,1377.355027 3173.365996,1376.282774 3174.534414,1375.489244 3170.560320,1370.067543 3156.685248,1380.163660"/>
    <poly id="1218288884" type="building" color="255,230,230" fill="1" layer="-1.00" shape="3142.211131,1407.383613 3151.589598,1401.001673 3136.103948,1379.286325 3131.737533,1381.879648 3134.036540,1385.333391 3129.016187,1389.266136 3135.418227,1397.618952 3138.748262,1395.495865 3140.342456,1397.686632 3137.027767,1400.119648 3142.211131,1407.383613"/>
    <poly id="1218288885" type="building" color="255,230,230" fill="1" layer="-1.00" shape="3119.220394,1394.568948 3131.494435,1412.445925 3139.801987,1406.346448 3127.367374,1388.992602 3119.220394,1394.568948"/>
    <poly id="1218288886" type="building" color="255,230,230" fill="1" layer="-1.00" shape="3122.150804,1417.675265 3129.853173,1412.659680 3117.590737,1396.211505 3109.981684,1401.125943 3122.150804,1417.675265"/>
    <poly id="1218288887" type="building" color="255,230,230" fill="1" layer="-1.00" shape="3109.686404,1426.287259 3119.123048,1418.896395 3107.371187,1404.101908 3097.628797,1410.810708 3109.686404,1426.287259"/>
    <poly id="1218288888" type="building" color="255,230,230" fill="1" layer="-1.00" shape="3076.666343,1417.992466 3094.047116,1440.232357 3106.800633,1431.228187 3090.014429,1408.580307 3076.666343,1417.992466"/>
    <poly id="1218288889" type="building" color="255,230,230" fill="1" layer="-1.00" shape="3075.478236,1400.508615 3083.487311,1411.882822 3102.170669,1399.131220 3100.633882,1396.562930 3105.739347,1393.359982 3099.474580,1384.340388 3075.478236,1400.508615"/>
    <poly id="1218288890" type="building" color="255,230,230" fill="1" layer="-1.00" shape="3081.050578,1305.666332 3067.260696,1315.816450 3068.418049,1318.390622 3064.061940,1321.648414 3070.068543,1328.977176 3080.168863,1320.878166 3082.063200,1322.709809 3087.441956,1318.095800 3085.834831,1315.750147 3087.823686,1314.157413 3081.050578,1305.666332"/>
    <poly id="1218288891" type="building" color="255,230,230" fill="1" layer="-1.00" shape="3049.971585,1310.368441 3056.013674,1318.627157 3078.392557,1302.173840 3072.267518,1294.005035 3049.971585,1310.368441"/>
    <poly id="1218288892" type="building" color="255,230,230" fill="1" layer="-1.00" shape="3131.433309,1287.438561 3126.631563,1280.988409 3128.986548,1279.212756 3125.267940,1274.628971 3135.022327,1268.019655 3143.174318,1279.092530 3131.433309,1287.438561"/>
    <poly id="1218288893" type="building" color="255,230,230" fill="1" layer="-1.00" shape="3108.371718,1286.367032 3114.495915,1294.480453 3124.888319,1286.864291 3118.713825,1278.906736 3108.371718,1286.367032"/>
    <poly id="1218288894" type="building" color="255,230,230" fill="1" layer="-1.00" shape="3104.298779,1298.371581 3106.108044,1300.835950 3114.041444,1295.085676 3112.126783,1292.622941 3104.298779,1298.371581"/>
    <poly id="1218288895" type="building" color="255,230,230" fill="1" layer="-1.00" shape="3091.438766,1278.731299 3097.688842,1287.485261 3100.360532,1285.737936 3102.318208,1288.255393 3118.245141,1276.554517 3112.549806,1268.223980 3105.534114,1273.328620 3103.032743,1270.420805 3091.438766,1278.731299"/>
    <poly id="1218288896" type="building" color="255,230,230" fill="1" layer="-1.00" shape="3084.433693,1269.557018 3091.060098,1278.105757 3111.111520,1263.848550 3104.544227,1255.033045 3084.433693,1269.557018"/>
    <poly id="1218288897" type="building" color="255,230,230" fill="1" layer="-1.00" shape="3080.609071,1274.457109 3085.595806,1281.281034 3090.091319,1278.176158 3085.115122,1271.352071 3080.609071,1274.457109"/>
    <poly id="1218288898" type="building" color="255,230,230" fill="1" layer="-1.00" shape="3105.960025,1254.556928 3111.211903,1262.163232 3122.385139,1253.914632 3117.072081,1246.442207 3105.960025,1254.556928"/>
    <poly id="1218288899" type="building" color="255,230,230" fill="1" layer="-1.00" shape="3072.330389,1255.886787 3081.062008,1266.950701 3096.158814,1256.104589 3092.114560,1249.554072 3094.450352,1247.900571 3099.281982,1254.239492 3103.168424,1251.288058 3094.127272,1239.298451 3088.717166,1243.248308 3090.632679,1245.766419 3089.506425,1246.559291 3087.754327,1244.382046 3072.330389,1255.886787"/>
    <poly id="1218288900" type="building" color="255,230,230" fill="1" layer="-1.00" shape="3064.390586,1243.536701 3072.184934,1253.983732 3088.880547,1242.226656 3084.599209,1236.023211 3088.591903,1233.125520 3084.920690,1228.197596 3064.390586,1243.536701"/>
    <poly id="1218288901" type="building" color="255,230,230" fill="1" layer="-1.00" shape="3055.936486,1230.651792 3064.166034,1241.291473 3084.018207,1227.103844 3076.169447,1216.546889 3072.415045,1219.175028 3071.315987,1217.641227 3066.029097,1221.378698 3067.020529,1222.770161 3055.936486,1230.651792"/>
    <poly id="1218288902" type="building" color="255,230,230" fill="1" layer="-1.00" shape="3102.307344,1196.412957 3117.269208,1202.029906 3111.397480,1214.283891 3102.987985,1211.079944 3106.550403,1203.547491 3100.632801,1201.279729 3102.307344,1196.412957"/>
    <poly id="1218288903" type="building" color="255,230,230" fill="1" layer="-1.00" shape="3168.871140,1316.866868 3171.531928,1320.536545 3182.018670,1312.885655 3179.278201,1309.516304 3168.871140,1316.866868"/>
    <poly id="1218288904" type="building" color="255,230,230" fill="1" layer="-1.00" shape="3141.378203,1304.000187 3158.267395,1326.491339 3162.338170,1323.869357 3168.983649,1332.284851 3175.269070,1328.354635 3152.104436,1296.157286 3141.378203,1304.000187"/>
    <poly id="1218288905" type="building" color="255,230,230" fill="1" layer="-1.00" shape="3087.806650,1373.598915 3094.669864,1383.140952 3087.244791,1388.362696 3084.470482,1384.849851 3081.967408,1386.594558 3085.260249,1391.594815 3077.649061,1397.052064 3070.102222,1386.933514 3087.806650,1373.598915"/>
    <poly id="1218288906" type="building" color="255,230,230" fill="1" layer="-1.00" shape="3069.238125,1393.759494 3066.610976,1395.661205 3063.797429,1392.337280 3068.851644,1388.548036 3074.281577,1395.398332 3071.904118,1397.085704 3069.238125,1393.759494"/>
    <poly id="1218288907" type="building" color="255,230,230" fill="1" layer="-1.00" shape="3098.240806,1328.540571 3105.019766,1337.408188 3085.743858,1350.013903 3078.971770,1341.589269 3098.240806,1328.540571"/>
    <poly id="1218288908" type="building" color="255,230,230" fill="1" layer="-1.00" shape="3031.767340,1271.713539 3044.630311,1288.828163 3062.075137,1277.114897 3049.189259,1259.203066 3031.767340,1271.713539"/>
    <poly id="1218288909" type="building" color="255,230,230" fill="1" layer="-1.00" shape="3012.417052,1269.310488 3024.680421,1285.149438 3034.484351,1277.653222 3020.382481,1258.142921 3012.692930,1263.302275 3015.659324,1266.967234 3012.417052,1269.310488"/>
    <poly id="1218288910" type="building" color="255,230,230" fill="1" layer="-1.00" shape="3029.167982,1249.554749 3039.623891,1262.364340 3049.214538,1255.392056 3038.861617,1242.425791 3029.167982,1249.554749"/>
    <poly id="1218288911" type="building" color="255,230,230" fill="1" layer="-1.00" shape="3002.702593,1304.354740 2997.387671,1304.924490 2998.821555,1295.408964 2995.930508,1293.205048 3000.945463,1289.604744 3004.143800,1292.590391 3007.492747,1289.647308 3012.514064,1295.983309 3002.702593,1304.354740"/>
    <poly id="1218288912" type="building" color="255,230,230" fill="1" layer="-1.00" shape="3009.028281,1321.393433 3015.954745,1330.258791 3038.092636,1313.897882 3031.684833,1305.168502 3009.028281,1321.393433"/>
    <poly id="1218288913" type="building" color="255,230,230" fill="1" layer="-1.00" shape="3027.132005,1343.356305 3034.748119,1353.185781 3061.618849,1334.746506 3054.077703,1324.993419 3027.132005,1343.356305"/>
    <poly id="1218288914" type="building" color="255,230,230" fill="1" layer="-1.00" shape="3020.696961,1330.827802 3037.474519,1319.590156 3036.272710,1317.548385 3044.768850,1312.055282 3048.889004,1318.061841 3024.203900,1335.359498 3020.696961,1330.827802"/>
    <poly id="1218288915" type="building" color="255,230,230" fill="1" layer="-1.00" shape="3036.050449,1355.591548 3043.744812,1365.707821 3067.209586,1348.573059 3060.049058,1338.891617 3036.050449,1355.591548"/>
    <poly id="1218288916" type="building" color="255,230,230" fill="1" layer="-1.00" shape="3056.017885,1378.766190 3063.823740,1388.592718 3070.436512,1384.014982 3068.803774,1382.057433 3083.256674,1371.830582 3077.647469,1364.296270 3076.043423,1365.550718 3074.422426,1363.670528 3073.234815,1364.586201 3071.226327,1362.191379 3073.182540,1360.532689 3070.450668,1357.717060 3061.652668,1364.821070 3066.285157,1370.553831 3056.017885,1378.766190"/>
    <poly id="1218288917" type="building" color="255,230,230" fill="1" layer="-1.00" shape="3069.702385,1382.220746 3071.522191,1384.684956 3083.687689,1375.833915 3081.879795,1373.458141 3069.702385,1382.220746"/>
    <poly id="1218288918" type="building" color="255,230,230" fill="1" layer="-1.00" shape="3056.373663,1358.865702 3059.548911,1363.081290 3068.046513,1357.001054 3064.983594,1352.551102 3056.373663,1358.865702"/>
    <poly id="1218293039" type="building" color="255,230,230" fill="1" layer="-1.00" shape="2997.760032,1275.884919 3004.611698,1286.047490 3017.786912,1278.410431 3009.023171,1265.951241 3011.077665,1264.512582 3009.304324,1262.324583 3001.667809,1267.505264 3004.255636,1271.231477 2997.760032,1275.884919"/>
    <poly id="1218293040" type="building" color="255,230,230" fill="1" layer="-1.00" shape="3000.767189,1282.861384 2988.364295,1292.037296 2982.935794,1285.275581 2988.514980,1280.669575 2990.900740,1283.601349 2997.495223,1278.525437 3000.767189,1282.861384"/>
    <poly id="1218293041" type="building" color="255,230,230" fill="1" layer="-1.00" shape="3001.255856,1247.040655 3014.951983,1237.645297 3007.390060,1227.227879 3003.792134,1222.265575 3002.736441,1220.808641 2998.998586,1215.660188 2998.427982,1214.893613 2991.698470,1219.417752 2987.919304,1222.489350 2993.236391,1228.865080 2998.290568,1225.075851 3000.717895,1228.649467 2991.856435,1235.056559 3001.255856,1247.040655"/>
    <poly id="1218293042" type="building" color="255,230,230" fill="1" layer="-1.00" shape="2973.611520,1268.615660 2957.311457,1246.026634 2970.288781,1237.185239 2976.533981,1245.629142 2973.962119,1247.696146 2976.503491,1251.146146 2979.644486,1249.070325 2986.804083,1258.696415 2973.611520,1268.615660"/>
    <poly id="1218293043" type="building" color="255,230,230" fill="1" layer="-1.00" shape="2926.834938,1206.586972 2943.247095,1228.930576 2949.395746,1224.337913 2943.510550,1216.674921 2946.537323,1214.711648 2935.834198,1200.908884 2934.995134,1199.825222 2926.834938,1206.586972"/>
    <poly id="1218293044" type="building" color="255,230,230" fill="1" layer="-1.00" shape="2937.247152,1199.568789 2943.249991,1207.340733 2945.156071,1205.848992 2949.882241,1212.189576 2947.645833,1213.453810 2951.924028,1219.457935 2968.591995,1207.956181 2963.412792,1201.633697 2960.714536,1203.026938 2956.913902,1198.588404 2961.052782,1195.599858 2954.365803,1187.218184 2937.247152,1199.568789"/>
    <poly id="1218293045" type="building" color="255,230,230" fill="1" layer="-1.00" shape="2952.712860,1234.311549 2958.971848,1242.965712 2971.447220,1234.386871 2966.182298,1226.614579 2961.320057,1230.544831 2960.094363,1229.001910 2952.712860,1234.311549"/>
    <poly id="1218293046" type="building" color="255,230,230" fill="1" layer="-1.00" shape="2973.204475,1238.258883 2983.228657,1251.784139 2996.518632,1242.029536 2988.692373,1231.560821 2979.565361,1237.839092 2977.316450,1234.894120 2973.204475,1238.258883"/>
    <poly id="1218293047" type="amenity" color="237,199,199" fill="1" layer="-1.00" shape="3006.678082,1163.588298 3045.548176,1217.442377 3054.713370,1210.908697 3051.028885,1205.803736 3074.249406,1189.248740 3077.793621,1194.145402 3084.362610,1189.468632 3073.750875,1174.767249 3044.503939,1195.636119 3016.374935,1156.669765 3006.678082,1163.588298"/>
    <poly id="1218293047#1" type="building" color="255,230,230" fill="1" layer="-1.00" shape="3006.678082,1163.588298 3045.548176,1217.442377 3054.713370,1210.908697 3051.028885,1205.803736 3074.249406,1189.248740 3077.793621,1194.145402 3084.362610,1189.468632 3073.750875,1174.767249 3044.503939,1195.636119 3016.374935,1156.669765 3006.678082,1163.588298"/>
    <poly id="1218293048" type="amenity" color="237,199,199" fill="1" layer="-1.00" shape="3025.645123,1168.478611 3031.556819,1164.244063 3037.255592,1172.120389 3031.343894,1176.354939 3025.645123,1168.478611"/>
    <poly id="1218293048#1" type="building" color="255,230,230" fill="1" layer="-1.00" shape="3025.645123,1168.478611 3031.556819,1164.244063 3037.255592,1172.120389 3031.343894,1176.354939 3025.645123,1168.478611"/>
    <poly id="1218293049" type="building" color="255,230,230" fill="1" layer="-1.00" shape="3023.924240,1139.061601 3048.465404,1172.356537 3069.113323,1156.461743 3045.465756,1123.008977 3023.924240,1139.061601"/>
    <poly id="1218293049#1" type="leisure" color="207,245,201" fill="1" layer="-2.00" shape="3023.924240,1139.061601 3048.465404,1172.356537 3069.113323,1156.461743 3045.465756,1123.008977 3023.924240,1139.061601"/>
    <poly id="1218293049#2" type="sport" color="79,230,125" fill="1" layer="-2.00" shape="3023.924240,1139.061601 3048.465404,1172.356537 3069.113323,1156.461743 3045.465756,1123.008977 3023.924240,1139.061601"/>
    <poly id="1218293050" type="building" color="255,230,230" fill="1" layer="-1.00" shape="2986.425160,1212.465320 2991.698470,1219.417752 3008.488330,1206.939261 3003.444997,1199.861419 2986.425160,1212.465320"/>
    <poly id="1218293051" type="building" color="255,230,230" fill="1" layer="-1.00" shape="3002.736441,1220.808641 2998.998586,1215.660188 3008.497624,1208.899813 3013.105210,1214.389263 3011.979643,1215.226430 3009.850520,1216.610860 3008.539648,1215.013874 3005.713817,1217.018355 3006.469771,1218.180844 3002.736441,1220.808641"/>
    <poly id="1218293052" type="building" color="255,230,230" fill="1" layer="-1.00" shape="3003.792134,1222.265575 3005.741056,1220.817473 3007.064355,1222.536118 3013.724622,1217.625338 3011.979643,1215.226430 3013.105210,1214.389263 3016.763045,1211.651860 3021.431055,1217.638855 3007.390060,1227.227879 3003.792134,1222.265575"/>
    <poly id="1218293053" type="building" color="255,230,230" fill="1" layer="-1.00" shape="3014.923630,1229.692179 3017.671165,1232.839891 3021.643888,1229.333269 3018.858141,1226.440929 3014.923630,1229.692179"/>
    <poly id="1218293054" type="building" color="255,230,230" fill="1" layer="-1.00" shape="3008.393715,1227.367411 3010.590792,1230.368570 3017.590384,1225.585460 3015.339580,1222.518670 3008.393715,1227.367411"/>
    <poly id="1218293055" type="building" color="255,230,230" fill="1" layer="-1.00" shape="3017.521915,1221.166647 3023.095837,1228.468890 3027.434795,1225.466151 3021.703466,1218.210658 3017.521915,1221.166647"/>
    <poly id="1218293056" type="building" color="255,230,230" fill="1" layer="-1.00" shape="2993.009429,1181.557122 2985.662972,1180.961994 2982.295581,1177.270014 2983.716438,1168.275325 2993.009429,1181.557122"/>
    <poly id="1218293057" type="building" color="255,230,230" fill="1" layer="-1.00" shape="2973.535628,1208.599621 2979.561796,1216.515201 2982.988796,1213.847845 2985.902652,1217.524698 2987.993808,1215.730997 2985.268977,1212.006906 2999.123662,1201.279815 2997.454694,1199.023734 3004.351111,1194.386232 3000.256119,1189.320856 2973.535628,1208.599621"/>
    <poly id="1218293058" type="building" color="255,230,230" fill="1" layer="-1.00" shape="3091.728207,1166.811993 3098.385621,1176.002733 3104.651873,1171.518961 3102.777664,1168.944826 3108.772804,1164.653571 3103.989766,1158.048044 3091.728207,1166.811993"/>
    <poly id="1218293059" type="building" color="255,230,230" fill="1" layer="-1.00" shape="3105.476587,1157.393587 3112.552771,1167.076314 3119.297995,1162.208482 3117.521043,1159.787923 3121.889359,1156.640696 3116.579583,1149.378695 3105.476587,1157.393587"/>
    <poly id="1218293060" type="building" color="255,230,230" fill="1" layer="-1.00" shape="3114.039870,1141.276182 3122.602708,1153.694131 3126.368659,1151.132264 3129.345192,1155.450615 3133.705712,1152.480743 3122.155625,1135.733537 3114.039870,1141.276182"/>
    <poly id="1218293061" type="building" color="255,230,230" fill="1" layer="-1.00" shape="3127.718669,1132.811490 3126.718330,1141.046420 3132.243517,1141.802652 3131.196243,1147.689903 3139.171530,1147.366878 3141.123526,1146.118105 3139.672437,1143.637110 3134.236728,1134.372057 3127.718669,1132.811490"/>
    <poly id="1218293062" type="building" color="255,230,230" fill="1" layer="-1.00" shape="3138.499276,1136.643308 3144.367688,1145.259163 3157.544429,1136.370213 3151.298718,1127.217418 3147.490618,1129.779945 3151.071958,1135.030494 3149.423548,1136.141634 3146.219674,1131.439101 3138.499276,1136.643308"/>
    <poly id="1218293063" type="building" color="255,230,230" fill="1" layer="-1.00" shape="3110.029735,1151.208294 3115.189607,1147.439543 3108.373928,1138.240185 3103.214058,1142.008934 3110.029735,1151.208294"/>
    <poly id="1218293064" type="building" color="255,230,230" fill="1" layer="-1.00" shape="3084.792001,1155.277166 3088.656518,1160.434718 3094.305400,1156.248531 3097.384231,1160.365907 3104.950916,1154.765317 3101.129240,1149.651414 3103.536906,1147.874945 3101.975896,1145.783360 3103.820782,1144.425478 3102.270656,1142.355879 3084.792001,1155.277166"/>
    <poly id="1218293065" type="building" color="255,230,230" fill="1" layer="-1.00" shape="3083.267555,1155.544496 3077.060192,1146.823105 3093.756210,1135.099236 3098.810451,1142.199042 3088.892988,1149.165352 3090.035404,1150.776021 3083.267555,1155.544496"/>
    <poly id="1218293066" type="building" color="255,230,230" fill="1" layer="-1.00" shape="3096.104586,1133.578466 3102.516393,1141.886820 3107.517485,1138.076222 3101.095137,1129.768033 3096.104586,1133.578466"/>
    <poly id="1218293067" type="building" color="255,230,230" fill="1" layer="-1.00" shape="3118.273605,1117.205855 3124.028882,1125.324985 3135.854953,1117.033011 3132.406103,1112.168114 3134.564935,1110.661355 3132.247793,1107.396213 3118.273605,1117.205855"/>
    <poly id="1218293068" type="building" color="255,230,230" fill="1" layer="-1.00" shape="3115.754542,1118.596345 3120.072534,1124.444736 3121.365006,1123.494200 3123.453952,1126.319785 3118.533749,1129.907587 3112.126983,1121.244684 3115.754542,1118.596345"/>
    <poly id="1218293069" type="building" color="255,230,230" fill="1" layer="-1.00" shape="3105.989339,1111.580643 3109.564311,1116.421434 3113.045862,1113.875055 3111.376884,1111.618984 3127.169033,1100.075247 3125.252669,1097.501768 3105.989339,1111.580643"/>
    <poly id="1223890932" type="amenity" color="237,199,199" fill="1" layer="-1.00" shape="2858.667839,1676.868739 2865.740009,1676.759241 2874.502820,1685.751307 2874.057822,1693.778206 2866.977916,1702.240156 2858.008579,1702.379026 2847.546197,1691.197794 2849.319569,1684.535001 2858.667839,1676.868739"/>
    <poly id="1223890932#1" type="leisure" color="207,245,201" fill="1" layer="-2.00" shape="2858.667839,1676.868739 2865.740009,1676.759241 2874.502820,1685.751307 2874.057822,1693.778206 2866.977916,1702.240156 2858.008579,1702.379026 2847.546197,1691.197794 2849.319569,1684.535001 2858.667839,1676.868739"/>
    <poly id="1223890932#2" type="sport" color="79,230,125" fill="1" layer="-2.00" shape="2858.667839,1676.868739 2865.740009,1676.759241 2874.502820,1685.751307 2874.057822,1693.778206 2866.977916,1702.240156 2858.008579,1702.379026 2847.546197,1691.197794 2849.319569,1684.535001 2858.667839,1676.868739"/>
    <poly id="1223890933" type="amenity" color="237,199,199" fill="1" layer="-1.00" shape="2844.815101,1654.385707 2828.821453,1669.299738 2845.756295,1687.259811 2861.760318,1672.334528 2844.815101,1654.385707"/>
    <poly id="1223890933#1" type="leisure" color="207,245,201" fill="1" layer="-2.00" shape="2844.815101,1654.385707 2828.821453,1669.299738 2845.756295,1687.259811 2861.760318,1672.334528 2844.815101,1654.385707"/>
    <poly id="1223890933#2" type="sport" color="79,230,125" fill="1" layer="-2.00" shape="2844.815101,1654.385707 2828.821453,1669.299738 2845.756295,1687.259811 2861.760318,1672.334528 2844.815101,1654.385707"/>
    <poly id="1223890934" type="amenity" color="237,199,199" fill="1" layer="-1.00" shape="2813.347403,1685.091896 2805.521719,1692.369009 2822.113452,1709.957784 2817.374524,1714.373468 2822.358493,1719.657754 2827.097422,1715.242069 2849.959211,1739.468792 2857.774191,1732.180749 2813.347403,1685.091896"/>
    <poly id="1223890934#1" type="building" color="255,230,230" fill="1" layer="-1.00" shape="2813.347403,1685.091896 2805.521719,1692.369009 2822.113452,1709.957784 2817.374524,1714.373468 2822.358493,1719.657754 2827.097422,1715.242069 2849.959211,1739.468792 2857.774191,1732.180749 2813.347403,1685.091896"/>
    <poly id="1223890935" type="amenity" color="237,199,199" fill="1" layer="-1.00" shape="2826.631514,1671.526958 2819.305063,1678.364333 2864.021402,1725.769933 2871.358401,1718.932377 2826.631514,1671.526958"/>
    <poly id="1223890935#1" type="building" color="255,230,230" fill="1" layer="-1.00" shape="2826.631514,1671.526958 2819.305063,1678.364333 2864.021402,1725.769933 2871.358401,1718.932377 2826.631514,1671.526958"/>