<?xml version="1.0" encoding="UTF-8"?>

<!-- generated on Mon Sep  2 20:35:21 2024 by Eclipse SUMO netconvert Version 1.8.0
<configuration xmlns:xsi="http://www.w3.org/2001/XMLSchema-instance" xsi:noNamespaceSchemaLocation="http://sumo.dlr.de/xsd/netconvertConfiguration.xsd">

    <input>
        <osm-files value="map-osm.osm"/>
    </input>

    <output>
        <output-file value="test.net.xml"/>
    </output>

    <projection>
        <proj.utm value="true"/>
    </projection>

    <report>
        <aggregate-warnings value="5"/>
    </report>

</configuration>
-->

<net version="1.6" junctionCornerDetail="5" limitTurnSpeed="5.50" xmlns:xsi="http://www.w3.org/2001/XMLSchema-instance" xsi:noNamespaceSchemaLocation="http://sumo.dlr.de/xsd/net_file.xsd">

    <location netOffset="-785145.54,2095530.41" convBoundary="0.00,0.00,5524.49,4132.82" origBoundary="-48.292710,-18.932213,-48.240473,-18.894446" projParameter="+proj=utm +zone=22 +ellps=WGS84 +datum=WGS84 +units=m +no_defs"/>

    <type id="highway.bridleway" priority="1" numLanes="1" speed="2.78" allow="pedestrian" oneway="1" width="2.00"/>
    <type id="highway.bus_guideway" priority="1" numLanes="1" speed="27.78" allow="bus" oneway="1"/>
    <type id="highway.cycleway" priority="1" numLanes="1" speed="8.33" allow="bicycle" oneway="0" width="1.00"/>
    <type id="highway.footway" priority="1" numLanes="1" speed="2.78" allow="pedestrian" oneway="1" width="2.00"/>
    <type id="highway.ford" priority="1" numLanes="1" speed="2.78" allow="army" oneway="0"/>
    <type id="highway.living_street" priority="2" numLanes="1" speed="2.78" disallow="tram rail_urban rail rail_electric rail_fast ship" oneway="0"/>
    <type id="highway.motorway" priority="14" numLanes="2" speed="39.44" allow="private emergency authority army vip passenger hov taxi bus coach delivery truck trailer motorcycle evehicle custom1 custom2" oneway="1"/>
    <type id="highway.motorway_link" priority="9" numLanes="1" speed="22.22" allow="private emergency authority army vip passenger hov taxi bus coach delivery truck trailer motorcycle evehicle custom1 custom2" oneway="1"/>
    <type id="highway.path" priority="1" numLanes="1" speed="2.78" allow="pedestrian bicycle" oneway="0" width="2.00"/>
    <type id="highway.pedestrian" priority="1" numLanes="1" speed="2.78" allow="pedestrian" oneway="1" width="2.00"/>
    <type id="highway.primary" priority="12" numLanes="2" speed="27.78" disallow="tram rail_urban rail rail_electric rail_fast ship" oneway="0"/>
    <type id="highway.primary_link" priority="7" numLanes="1" speed="22.22" disallow="tram rail_urban rail rail_electric rail_fast ship" oneway="0"/>
    <type id="highway.raceway" priority="15" numLanes="2" speed="83.33" allow="vip" oneway="0"/>
    <type id="highway.residential" priority="3" numLanes="1" speed="13.89" disallow="tram rail_urban rail rail_electric rail_fast ship" oneway="0"/>
    <type id="highway.secondary" priority="11" numLanes="1" speed="27.78" disallow="tram rail_urban rail rail_electric rail_fast ship" oneway="0"/>
    <type id="highway.secondary_link" priority="6" numLanes="1" speed="22.22" disallow="tram rail_urban rail rail_electric rail_fast ship" oneway="0"/>
    <type id="highway.service" priority="1" numLanes="1" speed="5.56" allow="pedestrian delivery bicycle" oneway="0"/>
    <type id="highway.stairs" priority="1" numLanes="1" speed="1.39" allow="pedestrian" oneway="1" width="2.00"/>
    <type id="highway.step" priority="1" numLanes="1" speed="1.39" allow="pedestrian" oneway="1" width="2.00"/>
    <type id="highway.steps" priority="1" numLanes="1" speed="1.39" allow="pedestrian" oneway="1" width="2.00"/>
    <type id="highway.tertiary" priority="10" numLanes="1" speed="22.22" disallow="tram rail_urban rail rail_electric rail_fast ship" oneway="0"/>
    <type id="highway.tertiary_link" priority="5" numLanes="1" speed="22.22" disallow="tram rail_urban rail rail_electric rail_fast ship" oneway="0"/>
    <type id="highway.track" priority="1" numLanes="1" speed="5.56" allow="pedestrian motorcycle moped bicycle" oneway="0"/>
    <type id="highway.trunk" priority="13" numLanes="2" speed="27.78" disallow="pedestrian bicycle tram rail_urban rail rail_electric rail_fast ship" oneway="0"/>
    <type id="highway.trunk_link" priority="8" numLanes="1" speed="22.22" disallow="pedestrian bicycle tram rail_urban rail rail_electric rail_fast ship" oneway="0"/>
    <type id="highway.unclassified" priority="4" numLanes="1" speed="13.89" disallow="tram rail_urban rail rail_electric rail_fast ship" oneway="0"/>
    <type id="highway.unsurfaced" priority="1" numLanes="1" speed="8.33" disallow="tram rail_urban rail rail_electric rail_fast ship" oneway="0"/>
    <type id="railway.highspeed" priority="21" numLanes="1" speed="69.44" allow="rail_fast" oneway="1"/>
    <type id="railway.light_rail" priority="19" numLanes="1" speed="27.78" allow="rail_urban" oneway="1"/>
    <type id="railway.preserved" priority="16" numLanes="1" speed="27.78" allow="rail" oneway="1"/>
    <type id="railway.rail" priority="20" numLanes="1" speed="44.44" allow="rail" oneway="1"/>
    <type id="railway.subway" priority="18" numLanes="1" speed="27.78" allow="rail_urban" oneway="1"/>
    <type id="railway.tram" priority="17" numLanes="1" speed="13.89" allow="tram" oneway="1"/>

    <edge id=":10171948540_0" function="internal">
        <lane id=":10171948540_0_0" index="0" disallow="tram rail_urban rail rail_electric rail_fast ship" speed="11.11" length="3.00" shape="4376.96,1732.77 4376.06,1729.90"/>
    </edge>
    <edge id=":10171948540_1" function="internal">
        <lane id=":10171948540_1_0" index="0" allow="pedestrian bicycle" speed="6.95" length="3.08" width="2.00" shape="4376.96,1732.77 4376.78,1731.88 4376.80,1731.24 4376.82,1730.61 4376.65,1729.72"/>
    </edge>
    <edge id=":10171948540_2" function="internal">
        <lane id=":10171948540_2_0" index="0" disallow="tram rail_urban rail rail_electric rail_fast ship" speed="3.65" length="2.34" shape="4376.96,1732.77 4377.36,1731.38 4378.00,1730.76"/>
    </edge>
    <edge id=":10171948540_9" function="internal">
        <lane id=":10171948540_9_0" index="0" disallow="tram rail_urban rail rail_electric rail_fast ship" speed="3.65" length="2.34" shape="4378.00,1730.76 4378.89,1730.90 4380.01,1731.81"/>
    </edge>
    <edge id=":10171948540_3" function="internal">
        <lane id=":10171948540_3_0" index="0" disallow="tram rail_urban rail rail_electric rail_fast ship" speed="11.11" length="3.00" shape="4379.11,1728.95 4380.01,1731.81"/>
    </edge>
    <edge id=":10171948540_4" function="internal">
        <lane id=":10171948540_4_0" index="0" allow="pedestrian bicycle" speed="3.06" length="2.58" width="2.00" shape="4379.11,1728.95 4376.65,1729.72"/>
    </edge>
    <edge id=":10171948540_5" function="internal">
        <lane id=":10171948540_5_0" index="0" disallow="tram rail_urban rail rail_electric rail_fast ship" speed="3.65" length="2.34" shape="4379.11,1728.95 4378.71,1730.33 4378.06,1730.95"/>
    </edge>
    <edge id=":10171948540_10" function="internal">
        <lane id=":10171948540_10_0" index="0" disallow="tram rail_urban rail rail_electric rail_fast ship" speed="3.65" length="2.34" shape="4378.06,1730.95 4377.18,1730.81 4376.06,1729.90"/>
    </edge>
    <edge id=":10171948540_6" function="internal">
        <lane id=":10171948540_6_0" index="0" allow="pedestrian bicycle" speed="6.95" length="3.08" shape="4378.56,1729.12 4378.90,1729.95 4379.28,1730.47 4379.65,1730.98 4380.01,1731.81"/>
    </edge>
    <edge id=":10171948540_7" function="internal">
        <lane id=":10171948540_7_0" index="0" allow="pedestrian bicycle" speed="2.79" length="2.62" shape="4378.56,1729.12 4376.06,1729.90"/>
    </edge>
    <edge id=":10171948540_8" function="internal">
        <lane id=":10171948540_8_0" index="0" allow="pedestrian bicycle" speed="2.78" length="2.92" width="2.00" shape="4378.56,1729.12 4378.30,1729.99 4377.90,1730.37 4377.35,1730.28 4376.65,1729.72"/>
    </edge>
    <edge id=":10749226758_0" function="internal">
        <lane id=":10749226758_0_0" index="0" allow="pedestrian bicycle" speed="2.78" length="2.92" width="2.00" shape="3787.68,1341.24 3787.04,1340.61 3786.88,1340.08 3787.22,1339.63 3788.05,1339.28"/>
    </edge>
    <edge id=":10749553022_0" function="internal">
        <lane id=":10749553022_0_0" index="0" disallow="tram rail_urban rail rail_electric rail_fast ship" speed="16.67" length="5.00" shape="3246.64,1320.56 3249.10,1324.91"/>
        <lane id=":10749553022_0_1" index="1" disallow="tram rail_urban rail rail_electric rail_fast ship" speed="16.67" length="5.00" shape="3243.86,1322.16 3246.33,1326.50"/>
    </edge>
    <edge id=":10749553026_0" function="internal">
        <lane id=":10749553026_0_0" index="0" allow="pedestrian delivery bicycle" speed="8.33" length="5.24" shape="3303.80,1331.55 3304.88,1330.42 3305.67,1329.61 3306.58,1329.09 3308.05,1328.81"/>
    </edge>
    <edge id=":10749796198_0" function="internal">
        <lane id=":10749796198_0_0" index="0" allow="pedestrian delivery bicycle" speed="6.23" length="4.94" shape="3788.23,1432.48 3787.08,1432.38 3785.96,1432.62 3784.87,1433.20 3783.83,1434.13"/>
    </edge>
    <edge id=":10749796198_1" function="internal">
        <lane id=":10749796198_1_0" index="0" allow="pedestrian delivery bicycle" speed="5.86" length="4.77" shape="3786.18,1425.82 3786.58,1427.18 3787.19,1428.22 3787.98,1428.95 3788.97,1429.37"/>
    </edge>
    <edge id=":10749796198_2" function="internal">
        <lane id=":10749796198_2_0" index="0" allow="pedestrian delivery bicycle" speed="5.56" length="8.99" shape="3786.18,1425.82 3786.40,1428.12 3786.08,1430.28 3785.22,1432.28 3783.83,1434.13"/>
    </edge>
    <edge id=":11911765165_0" function="internal">
        <lane id=":11911765165_0_0" index="0" disallow="tram rail_urban rail rail_electric rail_fast ship" speed="11.11" length="1.17" shape="4113.87,1616.10 4113.77,1615.77 4113.73,1615.54 4113.69,1615.30 4113.61,1614.97"/>
    </edge>
    <edge id=":11911765167_0" function="internal">
        <lane id=":11911765167_0_0" index="0" allow="pedestrian delivery bicycle" speed="8.33" length="5.11" shape="3739.39,1540.70 3740.41,1535.69"/>
    </edge>
    <edge id=":11911780670_0" function="internal">
        <lane id=":11911780670_0_0" index="0" allow="pedestrian bicycle" speed="3.10" length="2.66" shape="4034.63,1367.67 4033.68,1368.38 4033.16,1368.91 4033.06,1369.25 4033.39,1369.42"/>
    </edge>
    <edge id=":11911780670_1" function="internal">
        <lane id=":11911780670_1_0" index="0" allow="pedestrian bicycle" speed="2.78" length="9.97" width="2.00" shape="4034.63,1367.67 4032.21,1369.34 4030.65,1370.74 4029.64,1372.51 4028.86,1375.30"/>
    </edge>
    <edge id=":11911780670_2" function="internal">
        <lane id=":11911780670_2_0" index="0" allow="pedestrian bicycle" speed="2.78" length="1.24" width="2.00" shape="4034.63,1367.67 4033.69,1367.70 4033.43,1367.56"/>
    </edge>
    <edge id=":11911780670_10" function="internal">
        <lane id=":11911780670_10_0" index="0" allow="pedestrian bicycle" speed="2.78" length="1.82" width="2.00" shape="4033.43,1367.56 4033.17,1367.43 4033.08,1366.85 4033.41,1365.96"/>
    </edge>
    <edge id=":11911780670_3" function="internal">
        <lane id=":11911780670_3_0" index="0" allow="pedestrian bicycle" speed="7.16" length="8.83" width="2.00" shape="4025.48,1368.19 4028.36,1368.46 4030.64,1368.18 4032.33,1367.35 4033.41,1365.96"/>
    </edge>
    <edge id=":11911780670_4" function="internal">
        <lane id=":11911780670_4_0" index="0" disallow="tram rail_urban rail rail_electric rail_fast ship" speed="27.78" length="8.01" shape="4025.48,1368.19 4033.39,1369.42"/>
        <lane id=":11911780670_4_1" index="1" disallow="tram rail_urban rail rail_electric rail_fast ship" speed="27.78" length="8.01" shape="4025.01,1371.36 4032.93,1372.59"/>
    </edge>
    <edge id=":11911780670_6" function="internal">
        <lane id=":11911780670_6_0" index="0" allow="pedestrian bicycle" speed="5.47" length="3.96" width="2.00" shape="4025.01,1371.36 4026.95,1371.90 4028.24,1372.73 4028.44,1373.09"/>
    </edge>
    <edge id=":11911780670_11" function="internal">
        <lane id=":11911780670_11_0" index="0" allow="pedestrian bicycle" speed="5.47" length="2.33" width="2.00" shape="4028.44,1373.09 4028.88,1373.87 4028.86,1375.30"/>
    </edge>
    <edge id=":11911780670_7" function="internal">
        <lane id=":11911780670_7_0" index="0" allow="pedestrian bicycle" speed="2.78" length="11.19" width="2.00" shape="4026.91,1374.87 4028.07,1372.06 4029.76,1370.28 4031.64,1368.58 4033.41,1365.96"/>
    </edge>
    <edge id=":11911780670_8" function="internal">
        <lane id=":11911780670_8_0" index="0" allow="pedestrian bicycle" speed="5.86" length="7.11" shape="4026.91,1374.87 4027.53,1373.58 4028.75,1372.77 4030.55,1372.44 4032.93,1372.59"/>
    </edge>
    <edge id=":11911780670_9" function="internal">
        <lane id=":11911780670_9_0" index="0" allow="pedestrian bicycle" speed="2.78" length="2.92" width="2.00" shape="4026.91,1374.87 4027.56,1374.25 4028.10,1374.11 4028.53,1374.46 4028.86,1375.30"/>
    </edge>
    <edge id=":11911780672_0" function="internal">
        <lane id=":11911780672_0_0" index="0" allow="pedestrian bicycle" speed="3.15" length="3.74" shape="4005.19,1379.64 4003.04,1376.57"/>
    </edge>
    <edge id=":11911780672_1" function="internal">
        <lane id=":11911780672_1_0" index="0" allow="pedestrian bicycle" speed="2.78" length="23.91" width="2.00" shape="4005.19,1379.64 4014.00,1380.75 4020.54,1380.40 4024.81,1378.59 4026.82,1375.31"/>
    </edge>
    <edge id=":11911780672_2" function="internal">
        <lane id=":11911780672_2_0" index="0" allow="pedestrian bicycle" speed="2.78" length="8.80" width="2.00" shape="4005.19,1379.64 4007.62,1378.43 4009.30,1378.53 4010.23,1379.93 4010.41,1382.64"/>
    </edge>
    <edge id=":11911780672_3" function="internal">
        <lane id=":11911780672_3_0" index="0" allow="pedestrian bicycle" speed="8.33" length="15.55" width="2.00" shape="4025.74,1381.64 4020.93,1381.00 4017.16,1381.66 4013.85,1382.56 4010.41,1382.64"/>
    </edge>
    <edge id=":11911780672_4" function="internal">
        <lane id=":11911780672_4_0" index="0" disallow="tram rail_urban rail rail_electric rail_fast ship" speed="13.89" length="23.27" shape="4025.74,1381.64 4019.53,1379.92 4014.47,1378.77 4009.38,1377.79 4003.04,1376.57"/>
        <lane id=":11911780672_4_1" index="1" disallow="tram rail_urban rail rail_electric rail_fast ship" speed="13.89" length="23.27" shape="4026.65,1378.57 4020.44,1376.85 4015.39,1375.70 4010.29,1374.72 4003.96,1373.49"/>
    </edge>
    <edge id=":11911780672_6" function="internal">
        <lane id=":11911780672_6_0" index="0" allow="pedestrian bicycle" speed="4.46" length="3.48" width="2.00" shape="4026.65,1378.57 4026.24,1378.08 4026.30,1377.20 4026.57,1376.19 4026.82,1375.31"/>
    </edge>
    <edge id=":11911780672_7" function="internal">
        <lane id=":11911780672_7_0" index="0" allow="pedestrian bicycle" speed="2.78" length="21.89" width="2.00" shape="4028.77,1375.73 4026.81,1379.88 4023.10,1382.42 4017.64,1383.34 4010.41,1382.64"/>
    </edge>
    <edge id=":11911780672_8" function="internal">
        <lane id=":11911780672_8_0" index="0" allow="pedestrian bicycle" speed="8.33" length="25.25" shape="4028.77,1375.73 4027.01,1376.58 4022.28,1376.48 4014.60,1375.46 4003.96,1373.49"/>
    </edge>
    <edge id=":11911780672_9" function="internal">
        <lane id=":11911780672_9_0" index="0" allow="pedestrian bicycle" speed="2.78" length="2.92" width="2.00" shape="4028.77,1375.73 4028.12,1376.36 4027.58,1376.50 4027.14,1376.14 4026.82,1375.31"/>
    </edge>
    <edge id=":11911780675_0" function="internal">
        <lane id=":11911780675_0_0" index="0" allow="pedestrian delivery bicycle" speed="8.33" length="2.53" shape="4024.71,1638.92 4026.37,1640.83"/>
    </edge>
    <edge id=":1402844087_0" function="internal">
        <lane id=":1402844087_0_0" index="0" allow="pedestrian delivery bicycle" speed="5.56" length="0.53" shape="3740.53,1566.95 3740.37,1566.98 3740.27,1566.99 3740.16,1566.98 3740.01,1566.96"/>
    </edge>
    <edge id=":1414447399_0" function="internal">
        <lane id=":1414447399_0_0" index="0" allow="bicycle" speed="3.68" length="3.27" width="1.00" shape="3245.38,2056.32 3246.17,2056.95 3246.79,2057.04 3247.22,2056.60 3247.48,2055.62"/>
    </edge>
    <edge id=":1414447399_1" function="internal">
        <lane id=":1414447399_1_0" index="0" allow="bicycle" speed="8.33" length="7.07" width="1.00" shape="3246.61,2062.64 3247.48,2055.62"/>
    </edge>
    <edge id=":1414498721_0" function="internal">
        <lane id=":1414498721_0_0" index="0" disallow="tram rail_urban rail rail_electric rail_fast ship" speed="5.87" length="7.18" shape="4215.52,1181.77 4214.63,1179.47 4213.55,1177.97 4212.30,1177.26 4210.87,1177.33"/>
    </edge>
    <edge id=":1414498721_1" function="internal">
        <lane id=":1414498721_1_0" index="0" disallow="tram rail_urban rail rail_electric rail_fast ship" speed="11.11" length="13.26" shape="4215.52,1181.77 4211.95,1168.99"/>
    </edge>
    <edge id=":1414498721_2" function="internal">
        <lane id=":1414498721_2_0" index="0" disallow="tram rail_urban rail rail_electric rail_fast ship" speed="7.84" length="13.56" shape="4215.52,1181.77 4215.39,1178.52 4216.58,1175.20 4218.74,1172.41 4221.54,1170.74"/>
    </edge>
    <edge id=":1414498721_3" function="internal">
        <lane id=":1414498721_3_0" index="0" disallow="tram rail_urban rail rail_electric rail_fast ship" speed="3.65" length="4.67" shape="4215.52,1181.77 4215.94,1180.39 4216.59,1179.77 4217.48,1179.92 4218.59,1180.84"/>
    </edge>
    <edge id=":1414498721_4" function="internal">
        <lane id=":1414498721_4_0" index="0" disallow="tram rail_urban rail rail_electric rail_fast ship" speed="6.55" length="9.16" shape="4222.46,1173.81 4220.16,1174.87 4218.75,1176.39 4218.22,1178.39 4218.59,1180.84"/>
    </edge>
    <edge id=":1414498721_5" function="internal">
        <lane id=":1414498721_5_0" index="0" disallow="tram rail_urban rail rail_electric rail_fast ship" speed="22.22" length="12.12" shape="4222.46,1173.81 4210.87,1177.33"/>
    </edge>
    <edge id=":1414498721_6" function="internal">
        <lane id=":1414498721_6_0" index="0" disallow="tram rail_urban rail rail_electric rail_fast ship" speed="7.44" length="4.87" shape="4222.46,1173.81 4219.40,1174.04 4217.66,1173.59"/>
    </edge>
    <edge id=":1414498721_7" function="internal">
        <lane id=":1414498721_7_0" index="0" disallow="tram rail_urban rail rail_electric rail_fast ship" speed="3.65" length="2.34" shape="4222.46,1173.81 4221.08,1173.39 4220.47,1172.74"/>
    </edge>
    <edge id=":1414498721_16" function="internal">
        <lane id=":1414498721_16_0" index="0" disallow="tram rail_urban rail rail_electric rail_fast ship" speed="7.44" length="7.66" shape="4217.66,1173.59 4216.17,1173.21 4213.47,1171.47 4211.95,1168.99"/>
    </edge>
    <edge id=":1414498721_17" function="internal">
        <lane id=":1414498721_17_0" index="0" disallow="tram rail_urban rail rail_electric rail_fast ship" speed="3.65" length="2.34" shape="4220.47,1172.74 4220.62,1171.85 4221.54,1170.74"/>
    </edge>
    <edge id=":1414498721_8" function="internal">
        <lane id=":1414498721_8_0" index="0" disallow="tram rail_urban rail rail_electric rail_fast ship" speed="6.08" length="7.99" shape="4215.04,1168.19 4215.85,1169.92 4217.20,1170.92 4219.10,1171.20 4221.54,1170.74"/>
    </edge>
    <edge id=":1414498721_9" function="internal">
        <lane id=":1414498721_9_0" index="0" disallow="tram rail_urban rail rail_electric rail_fast ship" speed="11.11" length="13.14" shape="4215.04,1168.19 4218.59,1180.84"/>
    </edge>
    <edge id=":1414498721_10" function="internal">
        <lane id=":1414498721_10_0" index="0" disallow="tram rail_urban rail rail_electric rail_fast ship" speed="7.17" length="10.77" shape="4215.04,1168.19 4215.16,1170.86 4214.40,1173.63 4212.91,1175.97 4210.87,1177.33"/>
    </edge>
    <edge id=":1414498721_11" function="internal">
        <lane id=":1414498721_11_0" index="0" disallow="tram rail_urban rail rail_electric rail_fast ship" speed="3.65" length="4.67" shape="4215.04,1168.19 4214.57,1169.55 4213.90,1170.14 4213.02,1169.95 4211.95,1168.99"/>
    </edge>
    <edge id=":1414498721_12" function="internal">
        <lane id=":1414498721_12_0" index="0" disallow="tram rail_urban rail rail_electric rail_fast ship" speed="5.66" length="6.34" shape="4209.92,1174.27 4211.22,1173.58 4211.99,1172.47 4212.23,1170.94 4211.95,1168.99"/>
    </edge>
    <edge id=":1414498721_13" function="internal">
        <lane id=":1414498721_13_0" index="0" disallow="tram rail_urban rail rail_electric rail_fast ship" speed="22.22" length="12.14" shape="4209.92,1174.27 4221.54,1170.74"/>
    </edge>
    <edge id=":1414498721_14" function="internal">
        <lane id=":1414498721_14_0" index="0" disallow="tram rail_urban rail rail_electric rail_fast ship" speed="7.29" length="3.51" shape="4209.92,1174.27 4212.42,1174.41 4213.30,1174.92"/>
    </edge>
    <edge id=":1414498721_15" function="internal">
        <lane id=":1414498721_15_0" index="0" disallow="tram rail_urban rail rail_electric rail_fast ship" speed="3.65" length="2.34" shape="4209.92,1174.27 4211.31,1174.68 4211.92,1175.33"/>
    </edge>
    <edge id=":1414498721_18" function="internal">
        <lane id=":1414498721_18_0" index="0" disallow="tram rail_urban rail rail_electric rail_fast ship" speed="7.29" length="8.13" shape="4213.30,1174.92 4215.01,1175.90 4217.22,1178.22 4218.59,1180.84"/>
    </edge>
    <edge id=":1414498721_19" function="internal">
        <lane id=":1414498721_19_0" index="0" disallow="tram rail_urban rail rail_electric rail_fast ship" speed="3.65" length="2.34" shape="4211.92,1175.33 4211.78,1176.21 4210.87,1177.33"/>
    </edge>
    <edge id=":1414506621_0" function="internal">
        <lane id=":1414506621_0_0" index="0" disallow="tram rail_urban rail rail_electric rail_fast ship" speed="6.29" length="9.04" shape="3720.22,1299.15 3719.70,1301.62 3720.13,1303.58 3721.50,1305.03 3723.83,1305.99"/>
    </edge>
    <edge id=":1414506621_1" function="internal">
        <lane id=":1414506621_1_0" index="0" disallow="tram rail_urban rail rail_electric rail_fast ship" speed="3.65" length="4.67" shape="3720.22,1299.15 3719.06,1300.01 3718.17,1300.11 3717.55,1299.45 3717.22,1298.05"/>
    </edge>
    <edge id=":1414506621_2" function="internal">
        <lane id=":1414506621_2_0" index="0" disallow="tram rail_urban rail rail_electric rail_fast ship" speed="7.15" length="9.73" shape="3709.82,1302.86 3712.25,1302.94 3714.30,1302.16 3715.95,1300.53 3717.22,1298.05"/>
    </edge>
    <edge id=":1414506621_3" function="internal">
        <lane id=":1414506621_3_0" index="0" disallow="tram rail_urban rail rail_electric rail_fast ship" speed="13.89" length="14.26" shape="3709.82,1302.86 3723.83,1305.99"/>
        <lane id=":1414506621_3_1" index="1" disallow="tram rail_urban rail rail_electric rail_fast ship" speed="13.89" length="14.26" shape="3709.22,1306.01 3723.05,1309.09"/>
    </edge>
    <edge id=":1414506634_0" function="internal">
        <lane id=":1414506634_0_0" index="0" disallow="tram rail_urban rail rail_electric rail_fast ship" speed="6.12" length="9.06" shape="3641.09,1283.86 3640.50,1286.35 3640.92,1288.28 3642.35,1289.64 3644.77,1290.44"/>
    </edge>
    <edge id=":1414506634_1" function="internal">
        <lane id=":1414506634_1_0" index="0" disallow="tram rail_urban rail rail_electric rail_fast ship" speed="3.65" length="4.67" shape="3641.09,1283.86 3639.91,1284.68 3639.02,1284.76 3638.42,1284.10 3638.11,1282.69"/>
    </edge>
    <edge id=":1414506634_2" function="internal">
        <lane id=":1414506634_2_0" index="0" disallow="tram rail_urban rail rail_electric rail_fast ship" speed="7.32" length="10.08" shape="3630.47,1287.79 3632.91,1287.85 3635.00,1287.02 3636.73,1285.30 3638.11,1282.69"/>
    </edge>
    <edge id=":1414506634_3" function="internal">
        <lane id=":1414506634_3_0" index="0" disallow="tram rail_urban rail rail_electric rail_fast ship" speed="13.89" length="14.57" shape="3630.47,1287.79 3644.77,1290.44"/>
        <lane id=":1414506634_3_1" index="1" disallow="tram rail_urban rail rail_electric rail_fast ship" speed="13.89" length="14.57" shape="3629.87,1290.94 3644.21,1293.60"/>
    </edge>
    <edge id=":1414506641_0" function="internal">
        <lane id=":1414506641_0_0" index="0" disallow="tram rail_urban rail rail_electric rail_fast ship" speed="10.20" length="13.08" shape="3692.67,976.04 3690.39,977.05 3688.29,979.01 3686.37,981.92 3684.62,985.77"/>
    </edge>
    <edge id=":1414506641_1" function="internal">
        <lane id=":1414506641_1_0" index="0" disallow="tram rail_urban rail rail_electric rail_fast ship" speed="11.11" length="15.81" shape="3692.67,976.04 3677.30,979.73"/>
    </edge>
    <edge id=":1414506641_2" function="internal">
        <lane id=":1414506641_2_0" index="0" disallow="tram rail_urban rail rail_electric rail_fast ship" speed="3.65" length="4.67" shape="3692.67,976.04 3691.32,975.53 3690.76,974.84 3690.97,973.97 3691.96,972.92"/>
    </edge>
    <edge id=":1414506641_3" function="internal">
        <lane id=":1414506641_3_0" index="0" disallow="tram rail_urban rail rail_electric rail_fast ship" speed="11.11" length="15.87" shape="3676.53,976.63 3691.96,972.92"/>
    </edge>
    <edge id=":1414506641_4" function="internal">
        <lane id=":1414506641_4_0" index="0" disallow="tram rail_urban rail rail_electric rail_fast ship" speed="7.38" length="17.46" shape="3676.53,976.63 3681.84,976.01 3684.95,977.33 3685.88,980.58 3684.62,985.77"/>
    </edge>
    <edge id=":1414506641_5" function="internal">
        <lane id=":1414506641_5_0" index="0" disallow="tram rail_urban rail rail_electric rail_fast ship" speed="3.65" length="4.67" shape="3676.53,976.63 3677.89,977.11 3678.47,977.79 3678.27,978.67 3677.30,979.73"/>
    </edge>
    <edge id=":1414506641_6" function="internal">
        <lane id=":1414506641_6_0" index="0" disallow="tram rail_urban rail rail_electric rail_fast ship" speed="5.59" length="9.35" shape="3681.63,984.63 3682.31,981.85 3681.81,980.11 3680.14,979.40 3677.30,979.73"/>
    </edge>
    <edge id=":1414506641_7" function="internal">
        <lane id=":1414506641_7_0" index="0" disallow="tram rail_urban rail rail_electric rail_fast ship" speed="11.11" length="16.22" shape="3681.63,984.63 3683.75,980.05 3686.18,976.57 3688.91,974.20 3691.96,972.92"/>
    </edge>
    <edge id=":1414506641_8" function="internal">
        <lane id=":1414506641_8_0" index="0" disallow="tram rail_urban rail rail_electric rail_fast ship" speed="3.65" length="4.67" shape="3681.63,984.63 3682.81,983.80 3683.70,983.71 3684.30,984.37 3684.62,985.77"/>
    </edge>
    <edge id=":1414506643_0" function="internal">
        <lane id=":1414506643_0_0" index="0" disallow="tram rail_urban rail rail_electric rail_fast ship" speed="3.65" length="4.67" shape="3754.21,572.99 3754.72,571.65 3755.41,571.08 3756.28,571.29 3757.33,572.28"/>
    </edge>
    <edge id=":1414506646_0" function="internal">
        <lane id=":1414506646_0_0" index="0" disallow="tram rail_urban rail rail_electric rail_fast ship" speed="11.11" length="14.36" shape="3754.18,962.19 3740.16,965.30"/>
    </edge>
    <edge id=":1414506646_1" function="internal">
        <lane id=":1414506646_1_0" index="0" disallow="tram rail_urban rail rail_electric rail_fast ship" speed="7.98" length="14.24" shape="3754.18,962.19 3750.28,962.48 3747.24,961.44 3745.06,959.07 3743.75,955.39"/>
    </edge>
    <edge id=":1414506646_2" function="internal">
        <lane id=":1414506646_2_0" index="0" disallow="tram rail_urban rail rail_electric rail_fast ship" speed="3.65" length="4.67" shape="3754.18,962.19 3752.83,961.67 3752.27,960.97 3752.49,960.10 3753.50,959.07"/>
    </edge>
    <edge id=":1414506646_3" function="internal">
        <lane id=":1414506646_3_0" index="0" disallow="tram rail_urban rail rail_electric rail_fast ship" speed="6.48" length="9.03" shape="3746.88,954.75 3747.72,957.09 3749.10,958.59 3751.02,959.25 3753.50,959.07"/>
    </edge>
    <edge id=":1414506646_4" function="internal">
        <lane id=":1414506646_4_0" index="0" disallow="tram rail_urban rail rail_electric rail_fast ship" speed="8.07" length="14.20" shape="3746.88,954.75 3747.12,958.65 3746.08,961.71 3743.76,963.93 3740.16,965.30"/>
    </edge>
    <edge id=":1414506646_5" function="internal">
        <lane id=":1414506646_5_0" index="0" disallow="tram rail_urban rail rail_electric rail_fast ship" speed="3.65" length="4.67" shape="3746.88,954.75 3746.34,956.09 3745.63,956.64 3744.77,956.41 3743.75,955.39"/>
    </edge>
    <edge id=":1414506646_6" function="internal">
        <lane id=":1414506646_6_0" index="0" disallow="tram rail_urban rail rail_electric rail_fast ship" speed="6.59" length="9.12" shape="3739.45,962.18 3741.75,961.30 3743.24,959.87 3743.90,957.90 3743.75,955.39"/>
    </edge>
    <edge id=":1414506646_7" function="internal">
        <lane id=":1414506646_7_0" index="0" disallow="tram rail_urban rail rail_electric rail_fast ship" speed="11.11" length="14.39" shape="3739.45,962.18 3753.50,959.07"/>
    </edge>
    <edge id=":1414506646_8" function="internal">
        <lane id=":1414506646_8_0" index="0" disallow="tram rail_urban rail rail_electric rail_fast ship" speed="3.65" length="4.67" shape="3739.45,962.18 3740.80,962.70 3741.36,963.39 3741.15,964.26 3740.16,965.30"/>
    </edge>
    <edge id=":1414506648_0" function="internal">