<?xml version="1.0" encoding="UTF-8"?>

<!-- generated on Mon Sep  2 20:36:14 2024 by Eclipse SUMO duarouter Version 1.8.0
<configuration xmlns:xsi="http://www.w3.org/2001/XMLSchema-instance" xsi:noNamespaceSchemaLocation="http://sumo.dlr.de/xsd/duarouterConfiguration.xsd">

    <input>
        <net-file value="test.net.xml"/>
        <route-files value="trips.trips.xml"/>
    </input>

    <output>
        <output-file value="trips.trips.xml.tmp"/>
        <write-trips value="true"/>
    </output>

    <time>
        <begin value="0"/>
        <end value="1000"/>
    </time>

    <report>
        <no-warnings value="true"/>
        <ignore-errors value="true"/>
        <no-step-log value="true"/>
    </report>

</configuration>
-->

<routes xmlns:xsi="http://www.w3.org/2001/XMLSchema-instance" xsi:noNamespaceSchemaLocation="http://sumo.dlr.de/xsd/routes_file.xsd">
    <trip id="0" depart="0.00" from="30655853#2" to="-153357766"/>
    <trip id="1" depart="1.00" from="-616742655#0" to="-330141177#0"/>
    <trip id="2" depart="2.00" from="30665279#2" to="30664649#1"/>
    <trip id="3" depart="3.00" from="654450171" to="-261422562#2"/>
    <trip id="4" depart="4.00" from="160391607#0" to="-153357779#0"/>
    <trip id="6" depart="6.00" from="-127887327" to="-30664666#1"/>
    <trip id="8" depart="8.00" from="-30665279#4" to="30622963#1"/>
    <trip id="9" depart="9.00" from="462990973#0" to="-127887324#1"/>
    <trip id="10" depart="10.00" from="444901317#2" to="30664671#3"/>
    <trip id="11" depart="11.00" from="-82202421#2" to="-30649101#1"/>
    <trip id="12" depart="12.00" from="667351222#0" to="1171563463"/>
    <trip id="13" depart="13.00" from="-261422558#1" to="-30621729#6"/>
    <trip id="14" depart="14.00" from="616746142#1" to="30649091#1"/>
    <trip id="15" depart="15.00" from="444901317#2" to="30665278#2"/>
    <trip id="16" depart="16.00" from="30621735#3" to="81753177#6"/>
    <trip id="17" depart="17.00" from="127887328#3" to="303442578#2"/>
    <trip id="18" depart="18.00" from="616742652#2" to="30649096#1"/>
    <trip id="19" depart="19.00" from="616972255#0" to="30621729#8"/>
    <trip id="20" depart="20.00" from="30664671#2" to="-158030657"/>
    <trip id="21" depart="21.00" from="-326104351#1" to="-659117933#2"/>
    <trip id="22" depart="22.00" from="-205366193#1" to="-444901317#2"/>
    <trip id="23" depart="23.00" from="-261422558#4" to="-647043773#2"/>
    <trip id="24" depart="24.00" from="30655853#1" to="1171661490#2"/>
    <trip id="25" depart="25.00" from="127887324#1" to="-30665279#3"/>
    <trip id="26" depart="26.00" from="-616742652#0" to="667334378#1"/>
    <trip id="28" depart="28.00" from="-30649096#1" to="30665277#3"/>
    <trip id="29" depart="29.00" from="-30649092#1" to="127887324#0"/>
    <trip id="30" depart="30.00" from="853727291#1" to="30652340#0"/>
    <trip id="31" depart="31.00" from="30622469#1" to="30664664#3"/>
    <trip id="32" depart="32.00" from="616745019#5" to="330239341#1"/>
    <trip id="33" depart="33.00" from="-326104353" to="-153357784#0"/>
    <trip id="34" depart="34.00" from="-659117933#12" to="-616971271#0"/>
    <trip id="35" depart="35.00" from="-30664666#0" to="667334391#3"/>
    <trip id="36" depart="36.00" from="617806431#4" to="1163801976"/>
    <trip id="38" depart="38.00" from="665856992" to="205366193#1"/>
    <trip id="39" depart="39.00" from="-543899770#1" to="-616742652#0"/>
    <trip id="41" depart="41.00" from="30649098#0" to="659117933#12"/>
    <trip id="42" depart="42.00" from="153357789#1" to="-326104353"/>
    <trip id="43" depart="43.00" from="931172667" to="261422562#3"/>
    <trip id="44" depart="44.00" from="-239610042#2" to="-159080682#0"/>
    <trip id="45" depart="45.00" from="-261422562#2" to="30649101#1"/>
    <trip id="46" depart="46.00" from="398333794#1" to="154562663#1"/>
    <trip id="47" depart="47.00" from="-159541393#3" to="127887324#1"/>
    <trip id="48" depart="48.00" from="931172097#0" to="299487094#4"/>
    <trip id="49" depart="49.00" from="81753177#3" to="616973574"/>
    <trip id="50" depart="50.00" from="-127887322" to="30664673#1"/>
    <trip id="51" depart="51.00" from="30664666#2" to="303442578#1"/>
    <trip id="52" depart="52.00" from="-616742652#0" to="30652340#1"/>
    <trip id="53" depart="53.00" from="-261422562#3" to="160391607#0"/>
    <trip id="54" depart="54.00" from="239610042#2" to="667351222#0"/>
    <trip id="55" depart="55.00" from="617806431#3" to="-616745019#5"/>
    <trip id="56" depart="56.00" from="300971768#2" to="-30655852#5"/>
    <trip id="57" depart="57.00" from="665856992" to="617806431#4"/>
    <trip id="58" depart="58.00" from="-647043773#3" to="30652340#0"/>
    <trip id="59" depart="59.00" from="30652340#0" to="-30649101#0"/>
    <trip id="60" depart="60.00" from="30665301#4" to="303442578#1"/>
    <trip id="61" depart="61.00" from="330141177#0" to="299487097#1"/>
    <trip id="62" depart="62.00" from="-127887320" to="1171563462#2"/>
    <trip id="63" depart="63.00" from="-127887326" to="666426135#0"/>
    <trip id="64" depart="64.00" from="617806431#4" to="616745019#0"/>
    <trip id="65" depart="65.00" from="-659117933#11" to="-160391637#1"/>
    <trip id="66" depart="66.00" from="617806431#4" to="667334393"/>
    <trip id="67" depart="67.00" from="-239610042#1" to="261422558#3"/>
    <trip id="68" depart="68.00" from="-160391607#1" to="330066654#0"/>
    <trip id="69" depart="69.00" from="30665301#7" to="-30622963#1"/>
    <trip id="70" depart="70.00" from="261422561#0" to="303442578#2"/>
    <trip id="71" depart="71.00" from="-583555958" to="647043773#1"/>
    <trip id="72" depart="72.00" from="160391607#0" to="-30665288"/>
    <trip id="73" depart="73.00" from="30622468#0" to="30665278#2"/>
    <trip id="74" depart="74.00" from="-30655852#5" to="-853727291#0"/>
    <trip id="76" depart="76.00" from="160391637#4" to="292932042#1"/>
    <trip id="77" depart="77.00" from="-30621729#3" to="-330141177#0"/>
    <trip id="78" depart="78.00" from="-82009801" to="30622469#1"/>
    <trip id="79" depart="79.00" from="-330066655#0" to="-330066655#0"/>
    <trip id="80" depart="80.00" from="-160391637#2" to="30649159#0"/>
    <trip id="81" depart="81.00" from="-326104353" to="659117938"/>
    <trip id="82" depart="82.00" from="616971271#2" to="-239610042#0"/>
    <trip id="83" depart="83.00" from="-330141177#1" to="30655853#2"/>
    <trip id="85" depart="85.00" from="666426135#0" to="30621729#8"/>
    <trip id="86" depart="86.00" from="261422558#3" to="398537158#1"/>
    <trip id="87" depart="87.00" from="444901317#2" to="-30664664#0"/>
    <trip id="88" depart="88.00" from="-261422558#4" to="159541393#3"/>
    <trip id="89" depart="89.00" from="160391607#0" to="239610042#2"/>
    <trip id="91" depart="91.00" from="82009805#0" to="-30621735#0"/>
    <trip id="92" depart="92.00" from="153734599#2" to="1171563463"/>
    <trip id="93" depart="93.00" from="616972255#0" to="-616742652#0"/>
    <trip id="94" depart="94.00" from="-30652340#0" to="160391637#2"/>
    <trip id="95" depart="95.00" from="160391607#0" to="-647043773#3"/>
    <trip id="96" depart="96.00" from="-444901317#3" to="666426133#0"/>
    <trip id="97" depart="97.00" from="205366193#0" to="616973575#1"/>
    <trip id="98" depart="98.00" from="30622469#0" to="-159541393#2"/>
    <trip id="99" depart="99.00" from="931172668#1" to="616745019#4"/>
    <trip id="100" depart="100.00" from="81753177#1" to="666426134"/>
    <trip id="101" depart="101.00" from="616971268#0" to="-30652340#0"/>
    <trip id="103" depart="103.00" from="153734599#1" to="-160391637#2"/>
    <trip id="104" depart="104.00" from="127887328#3" to="853727291#2"/>
    <trip id="105" depart="105.00" from="-583555958" to="398537157#2"/>
    <trip id="106" depart="106.00" from="239610042#2" to="154562663#3"/>
    <trip id="108" depart="108.00" from="30622469#1" to="30664672#2"/>
    <trip id="109" depart="109.00" from="-30649091#1" to="-665856992"/>
    <trip id="110" depart="110.00" from="81753177#1" to="30621735#1"/>
    <trip id="111" depart="111.00" from="30622468#0" to="30665300#2"/>
    <trip id="112" depart="112.00" from="-158030530#1" to="30622468#1"/>
    <trip id="114" depart="114.00" from="-30649092#0" to="81747317#0"/>
    <trip id="115" depart="115.00" from="-205366193#1" to="-30664652"/>
    <trip id="116" depart="116.00" from="30649101#0" to="30664649#1"/>
    <trip id="117" depart="117.00" from="-330141175" to="-30622469#0"/>
    <trip id="118" depart="118.00" from="647043773#4" to="-616742652#0"/>
    <trip id="119" depart="119.00" from="30649101#0" to="30649096#1"/>
    <trip id="120" depart="120.00" from="159541393#2" to="30622468#1"/>
    <trip id="121" depart="121.00" from="30621187#1" to="667334375"/>
    <trip id="122" depart="122.00" from="-30664664#0" to="30664672#1"/>
    <trip id="123" depart="123.00" from="-330141177#2" to="127887328#3"/>
    <trip id="124" depart="124.00" from="30664664#0" to="-665856992"/>
    <trip id="125" depart="125.00" from="-659117933#12" to="30665301#3"/>
    <trip id="126" depart="126.00" from="-160391637#4" to="205366193#1"/>
    <trip id="127" depart="127.00" from="931172668#0" to="931164090#3"/>
    <trip id="128" depart="128.00" from="-160391637#4" to="-30665300#1"/>
    <trip id="129" depart="129.00" from="-583555958" to="667334374"/>
    <trip id="131" depart="131.00" from="127887324#1" to="-30649159#0"/>
    <trip id="132" depart="132.00" from="616742655#0" to="30664671#3"/>
    <trip id="133" depart="133.00" from="30652340#1" to="853816905"/>
    <trip id="135" depart="135.00" from="543899738" to="-665856992"/>
    <trip id="136" depart="136.00" from="30664652" to="667334389"/>
    <trip id="137" depart="137.00" from="-30621729#8" to="-30622468#1"/>
    <trip id="138" depart="138.00" from="-261422562#1" to="303649777"/>
    <trip id="139" depart="139.00" from="-616742652#2" to="30649091#1"/>
    <trip id="140" depart="140.00" from="30664672#0" to="-30665278#0"/>
    <trip id="141" depart="141.00" from="30655853#0" to="-616745019#6"/>
    <trip id="143" depart="143.00" from="616746142#0" to="-30621729#1"/>
    <trip id="144" depart="144.00" from="160391607#0" to="-647043773#1"/>
    <trip id="145" depart="145.00" from="-127887320" to="330141176#2"/>
    <trip id="146" depart="146.00" from="30655853#1" to="-616745019#4"/>
    <trip id="147" depart="147.00" from="30665281#1" to="303442578#2"/>
    <trip id="148" depart="148.00" from="160391621#0" to="-127887326"/>
    <trip id="149" depart="149.00" from="-160391637#7" to="659117933#10"/>
    <trip id="150" depart="150.00" from="659117933#3" to="303442578#2"/>
    <trip id="151" depart="151.00" from="616742655#0" to="30621939#2"/>
    <trip id="152" depart="152.00" from="-30622963#2" to="-30622963#0"/>
    <trip id="153" depart="153.00" from="-659117933#11" to="659117933#3"/>
    <trip id="154" depart="154.00" from="398537158#1" to="616973574"/>
    <trip id="155" depart="155.00" from="659117933#1" to="-30665279#4"/>
    <trip id="156" depart="156.00" from="-444901317#3" to="-30621735#1"/>
    <trip id="157" depart="157.00" from="330141177#0" to="659117933#11"/>
    <trip id="158" depart="158.00" from="154562663#0" to="30649096#1"/>
    <trip id="159" depart="159.00" from="-30649091#1" to="666426135#1"/>
    <trip id="160" depart="160.00" from="616973573" to="81797004#2"/>
    <trip id="161" depart="161.00" from="462990973#0" to="659117933#0"/>
    <trip id="162" depart="162.00" from="-127887327" to="30665281#0"/>
    <trip id="163" depart="163.00" from="-667334377" to="666426135#1"/>
    <trip id="165" depart="165.00" from="462990973#0" to="-616971271#0"/>
    <trip id="166" depart="166.00" from="330239341#1" to="-30622468#0"/>
    <trip id="167" depart="167.00" from="617806431#1" to="616972255#0"/>
    <trip id="168" depart="168.00" from="-30665288" to="543899770#0"/>
    <trip id="169" depart="169.00" from="248261375#1" to="-667351221#0"/>
    <trip id="170" depart="170.00" from="398537158#1" to="-330141177#2"/>
    <trip id="171" depart="171.00" from="-127887326" to="-30664664#2"/>
    <trip id="173" depart="173.00" from="81753177#1" to="-647043773#4"/>
    <trip id="174" depart="174.00" from="30655853#3" to="127887329"/>
    <trip id="175" depart="175.00" from="81797004#5" to="303442578#0"/>
    <trip id="176" depart="176.00" from="667334371" to="-30622468#1"/>
    <trip id="177" depart="177.00" from="81753177#3" to="-30655852#5"/>
    <trip id="178" depart="178.00" from="708085754#0" to="-616745019#7"/>
    <trip id="179" depart="179.00" from="-261422562#2" to="160391607#0"/>
    <trip id="181" depart="181.00" from="30649159#2" to="261432318#1"/>
    <trip id="182" depart="182.00" from="153357751#0" to="30621729#8"/>
    <trip id="183" depart="183.00" from="-462990973#0" to="30664671#3"/>
    <trip id="184" depart="184.00" from="-127887320" to="666426133#1"/>
    <trip id="185" depart="185.00" from="30622468#0" to="30664673#0"/>
    <trip id="186" depart="186.00" from="30665281#2" to="30655853#3"/>
    <trip id="187" depart="187.00" from="127887320" to="-205366193#1"/>
    <trip id="188" depart="188.00" from="30664652" to="1171563463"/>
    <trip id="189" depart="189.00" from="-659117933#12" to="616971271#1"/>
    <trip id="190" depart="190.00" from="30664672#0" to="-665856992"/>
    <trip id="191" depart="191.00" from="-659117933#12" to="153357770#1"/>
    <trip id="192" depart="192.00" from="153734599#2" to="-659117933#9"/>
    <trip id="193" depart="193.00" from="-30621729#8" to="154562663#0"/>
    <trip id="194" depart="194.00" from="667334374" to="30664663"/>
    <trip id="195" depart="195.00" from="659117933#2" to="30649096#0"/>
    <trip id="196" depart="196.00" from="-647043773#5" to="303442578#2"/>
    <trip id="197" depart="197.00" from="-127887320" to="-659117933#11"/>
    <trip id="198" depart="198.00" from="160391621#1" to="30621735#2"/>
    <trip id="200" depart="200.00" from="205366193#0" to="-30665300#1"/>
    <trip id="201" depart="201.00" from="261422558#3" to="659117933#5"/>
    <trip id="202" depart="202.00" from="398537158#1" to="-30652340#1"/>
    <trip id="203" depart="203.00" from="-239610042#0" to="261432318#4"/>
    <trip id="204" depart="204.00" from="30655853#0" to="1171563463"/>
    <trip id="205" depart="205.00" from="543899770#1" to="30665301#2"/>
    <trip id="206" depart="206.00" from="30664664#1" to="-330141177#0"/>
    <trip id="207" depart="207.00" from="-30655852#1" to="-153357751#1"/>
    <trip id="208" depart="208.00" from="-444901317#2" to="248261375#2"/>
    <trip id="209" depart="209.00" from="616971268#1" to="-239610042#1"/>
    <trip id="210" depart="210.00" from="159080682#0" to="30649159#0"/>
    <trip id="211" depart="211.00" from="-30652340#1" to="30664671#2"/>
    <trip id="214" depart="214.00" from="30665300#1" to="330141176#1"/>
    <trip id="215" depart="215.00" from="-261422562#0" to="158030530#1"/>
    <trip id="216" depart="216.00" from="-30649098#1" to="669605262"/>
    <trip id="218" depart="218.00" from="-444901317#3" to="616971271#1"/>
    <trip id="219" depart="219.00" from="239610044#0" to="444901317#3"/>
    <trip id="221" depart="221.00" from="30649101#0" to="667334399"/>
    <trip id="222" depart="222.00" from="647043773#5" to="30649092#1"/>
    <trip id="223" depart="223.00" from="30664672#0" to="261422562#3"/>
    <trip id="224" depart="224.00" from="616742654" to="303442578#2"/>
    <trip id="225" depart="225.00" from="659117930#1" to="30665298#2"/>
    <trip id="226" depart="226.00" from="261422561#0" to="-616745019#0"/>
    <trip id="227" depart="227.00" from="-444901317#3" to="30652340#0"/>
    <trip id="228" depart="228.00" from="30665301#7" to="299487094#0"/>
    <trip id="229" depart="229.00" from="30655851#3" to="-647043773#0"/>
    <trip id="230" depart="230.00" from="-205366193#0" to="-659117933#10"/>
    <trip id="231" depart="231.00" from="-616742652#2" to="1171563461#3"/>
    <trip id="232" depart="232.00" from="30622468#0" to="-30649096#0"/>
    <trip id="234" depart="234.00" from="30664672#0" to="-205366193#0"/>
    <trip id="235" depart="235.00" from="154562663#1" to="303442578#1"/>
    <trip id="236" depart="236.00" from="159541393#1" to="-30665279#0"/>
    <trip id="237" depart="237.00" from="159541393#3" to="659117933#9"/>
    <trip id="238" depart="238.00" from="30649098#0" to="30664671#1"/>
    <trip id="239" depart="239.00" from="616971271#1" to="330067166#1"/>
    <trip id="240" depart="240.00" from="127887329" to="-127887324#0"/>
    <trip id="241" depart="241.00" from="1171563461#3" to="30665301#4"/>
    <trip id="242" depart="242.00" from="616971271#0" to="667351221#2"/>
    <trip id="243" depart="243.00" from="159541393#2" to="30665300#2"/>
    <trip id="244" depart="244.00" from="30622468#1" to="30649091#1"/>
    <trip id="246" depart="246.00" from="160391637#2" to="-153357770#1"/>
    <trip id="248" depart="248.00" from="153734599#3" to="-30649159#2"/>
    <trip id="249" depart="249.00" from="261422537#2" to="-30622963#0"/>
    <trip id="250" depart="250.00" from="30655850#4" to="-153357770#0"/>
    <trip id="251" depart="251.00" from="153357779#0" to="30621729#3"/>
    <trip id="252" depart="252.00" from="-127887327" to="30652340#1"/>
    <trip id="253" depart="253.00" from="-30621735#1" to="239610042#0"/>
    <trip id="254" depart="254.00" from="-153357789#1" to="127887324#0"/>
    <trip id="255" depart="255.00" from="-30664666#1" to="1171563463"/>
    <trip id="256" depart="256.00" from="30665301#3" to="127887324#0"/>
    <trip id="257" depart="257.00" from="30665300#2" to="616745019#0"/>
    <trip id="258" depart="258.00" from="-444901317#3" to="-261422558#3"/>
    <trip id="259" depart="259.00" from="-127887326" to="303442578#1"/>
    <trip id="260" depart="260.00" from="931172668#1" to="1171563463"/>
    <trip id="263" depart="263.00" from="667334392" to="-30664666#2"/>
    <trip id="264" depart="264.00" from="-127887326" to="-30649101#0"/>
    <trip id="265" depart="265.00" from="-30621729#8" to="30655853#2"/>
    <trip id="266" depart="266.00" from="30649088#0" to="-326104353"/>
    <trip id="267" depart="267.00" from="30664670#1" to="330138935"/>
    <trip id="268" depart="268.00" from="-30649096#0" to="30649092#0"/>
    <trip id="269" depart="269.00" from="30665298#2" to="-30622468#1"/>
    <trip id="271" depart="271.00" from="-261422562#2" to="-153357766"/>
    <trip id="272" depart="272.00" from="-659117933#12" to="30664663"/>
    <trip id="274" depart="274.00" from="30664672#0" to="-239610042#2"/>
    <trip id="275" depart="275.00" from="30664670#0" to="30649101#1"/>
    <trip id="276" depart="276.00" from="-261422558#4" to="330141177#1"/>
    <trip id="277" depart="277.00" from="616971268#1" to="30649091#0"/>
    <trip id="278" depart="278.00" from="-30621729#3" to="82202421#3"/>
    <trip id="279" depart="279.00" from="330141177#1" to="1171563463"/>
    <trip id="280" depart="280.00" from="160391621#0" to="127887321"/>
    <trip id="282" depart="282.00" from="616971268#1" to="616742652#1"/>
    <trip id="283" depart="283.00" from="-261422562#0" to="81747317#0"/>
    <trip id="284" depart="284.00" from="30655853#1" to="616742655#0"/>
    <trip id="285" depart="285.00" from="30664672#0" to="160391607#1"/>
    <trip id="287" depart="287.00" from="-616742652#1" to="462990973#1"/>
    <trip id="288" depart="288.00" from="30622468#0" to="261422558#1"/>
    <trip id="289" depart="289.00" from="160391637#2" to="30665278#3"/>
    <trip id="290" depart="290.00" from="-616742652#1" to="616971271#2"/>
    <trip id="291" depart="291.00" from="616742654" to="-261422562#2"/>
    <trip id="293" depart="293.00" from="261422537#1" to="30649092#1"/>
    <trip id="294" depart="294.00" from="127887328#3" to="-153357770#1"/>
    <trip id="295" depart="295.00" from="616971270#0" to="-30664652"/>
    <trip id="296" depart="296.00" from="-30664666#1" to="444901317#3"/>
    <trip id="297" depart="297.00" from="-82202421#2" to="659117930#1"/>
    <trip id="298" depart="298.00" from="30664671#0" to="-647043773#1"/>
    <trip id="299" depart="299.00" from="-127887321" to="667334398#0"/>
    <trip id="300" depart="300.00" from="-239610042#1" to="30664673#1"/>
    <trip id="302" depart="302.00" from="30664670#0" to="30652340#3"/>
    <trip id="303" depart="303.00" from="292932042#2" to="444901317#1"/>
    <trip id="304" depart="304.00" from="-261422558#1" to="-330141177#0"/>
    <trip id="305" depart="305.00" from="30664670#0" to="-667351221#1"/>
    <trip id="306" depart="306.00" from="30649096#1" to="248261375#1"/>
    <trip id="307" depart="307.00" from="30621735#0" to="158030530#1"/>
    <trip id="308" depart="308.00" from="30665298#0" to="1171563463"/>
    <trip id="309" depart="309.00" from="30664671#1" to="-616971271#1"/>
    <trip id="310" depart="310.00" from="-444901317#3" to="-30622469#0"/>
    <trip id="311" depart="311.00" from="-30652340#1" to="-30622469#0"/>
    <trip id="312" depart="312.00" from="30621735#3" to="330066654#1"/>
    <trip id="313" depart="313.00" from="-30649159#1" to="-30665300#2"/>
    <trip id="315" depart="315.00" from="81753177#6" to="299487094#3"/>
    <trip id="316" depart="316.00" from="-616745019#5" to="-30621735#0"/>
    <trip id="317" depart="317.00" from="-30652340#1" to="-330141177#2"/>
    <trip id="318" depart="318.00" from="-30649101#1" to="-127887328#0"/>
    <trip id="319" depart="319.00" from="30621735#1" to="-647043773#0"/>
    <trip id="320" depart="320.00" from="81753177#5" to="303649777"/>
    <trip id="321" depart="321.00" from="30664670#0" to="-30622469#1"/>
    <trip id="322" depart="322.00" from="617806431#0" to="261422558#4"/>
    <trip id="323" depart="323.00" from="617806431#1" to="30621729#8"/>
    <trip id="324" depart="324.00" from="261422558#1" to="160391621#0"/>
    <trip id="325" depart="325.00" from="-30649159#1" to="-159541393#2"/>
    <trip id="326" depart="326.00" from="667334375" to="248261375#3"/>
    <trip id="328" depart="328.00" from="-160391637#5" to="30649159#0"/>
    <trip id="329" depart="329.00" from="-154562663#0" to="-30649101#0"/>
    <trip id="331" depart="331.00" from="931164090#1" to="-30622469#0"/>
    <trip id="332" depart="332.00" from="30665301#6" to="30649091#1"/>
    <trip id="333" depart="333.00" from="398333794#1" to="-330141177#1"/>
    <trip id="334" depart="334.00" from="30621187#1" to="160391637#4"/>
    <trip id="335" depart="335.00" from="205366193#0" to="616973573"/>
    <trip id="336" depart="336.00" from="853816904" to="-667351221#0"/>
    <trip id="337" depart="337.00" from="30655850#2" to="30649092#1"/>
    <trip id="338" depart="338.00" from="30665281#0" to="667334397"/>
    <trip id="339" depart="339.00" from="-30664664#3" to="-30665279#5"/>
    <trip id="341" depart="341.00" from="-30649098#0" to="-239610042#1"/>
    <trip id="342" depart="342.00" from="-127887320" to="160391637#4"/>
    <trip id="343" depart="343.00" from="30649101#0" to="-659117933#4"/>
    <trip id="345" depart="345.00" from="30664671#1" to="205366193#0"/>
    <trip id="346" depart="346.00" from="30664670#0" to="666426133#1"/>
    <trip id="347" depart="347.00" from="330239341#1" to="30649098#1"/>
    <trip id="349" depart="349.00" from="160391608#0" to="303442578#1"/>
    <trip id="351" depart="351.00" from="616742652#1" to="-239610042#0"/>
    <trip id="352" depart="352.00" from="-30649092#1" to="-82009801"/>
    <trip id="354" depart="354.00" from="-616971271#1" to="-30622469#1"/>
    <trip id="355" depart="355.00" from="30664670#0" to="30664671#3"/>
    <trip id="356" depart="356.00" from="667334378#1" to="261422562#0"/>
    <trip id="359" depart="359.00" from="-659117933#2" to="-616742652#1"/>
    <trip id="360" depart="360.00" from="-261422558#0" to="81747317#1"/>
    <trip id="361" depart="361.00" from="616742655#1" to="30621729#8"/>
    <trip id="362" depart="362.00" from="667334392" to="931172668#1"/>
    <trip id="363" depart="363.00" from="30664664#1" to="-616971271#1"/>
    <trip id="365" depart="365.00" from="261422558#1" to="30655850#2"/>
    <trip id="366" depart="366.00" from="666426128" to="-30664652"/>
    <trip id="367" depart="367.00" from="30649098#0" to="30649159#1"/>
    <trip id="368" depart="368.00" from="299487094#0" to="-303649869#1"/>
    <trip id="369" depart="369.00" from="1171563461#0" to="1171563463"/>
    <trip id="370" depart="370.00" from="30664664#0" to="616972255#0"/>
    <trip id="371" depart="371.00" from="-667334374" to="30664671#0"/>
    <trip id="372" depart="372.00" from="-616971271#1" to="667334391#3"/>
    <trip id="373" depart="373.00" from="462990973#3" to="303442578#2"/>
    <trip id="374" depart="374.00" from="239610042#2" to="1163801976"/>
    <trip id="375" depart="375.00" from="-659117933#3" to="81753177#4"/>
    <trip id="376" depart="376.00" from="153734599#3" to="261432318#3"/>
    <trip id="377" depart="377.00" from="82202421#3" to="30655851#3"/>
    <trip id="378" depart="378.00" from="30622468#0" to="153357784#1"/>
    <trip id="379" depart="379.00" from="-30649159#2" to="1171563463"/>
    <trip id="380" depart="380.00" from="30665301#0" to="30649098#1"/>
    <trip id="381" depart="381.00" from="30665301#2" to="-30665278#0"/>
    <trip id="382" depart="382.00" from="30622469#0" to="666426135#0"/>
    <trip id="383" depart="383.00" from="160391637#4" to="30664671#3"/>
    <trip id="384" depart="384.00" from="-30621729#4" to="81753177#6"/>
    <trip id="385" depart="385.00" from="30652340#0" to="-462990973#2"/>
    <trip id="386" depart="386.00" from="-30649092#0" to="303442578#2"/>
    <trip id="387" depart="387.00" from="30622469#0" to="-30621729#3"/>
    <trip id="390" depart="390.00" from="616742654" to="261422562#0"/>
    <trip id="391" depart="391.00" from="30664672#0" to="261422562#3"/>
    <trip id="392" depart="392.00" from="-616742655#0" to="616745019#3"/>
    <trip id="393" depart="393.00" from="81797004#4" to="-543899738"/>
    <trip id="394" depart="394.00" from="30622469#0" to="127887326"/>
    <trip id="395" depart="395.00" from="666426131#0" to="261422562#3"/>
    <trip id="397" depart="397.00" from="-616742655#1" to="398741948#2"/>
    <trip id="398" depart="398.00" from="159080682#0" to="667334375"/>
    <trip id="400" depart="400.00" from="-616745019#5" to="-665856992"/>
    <trip id="401" depart="401.00" from="30649098#1" to="931172668#0"/>
    <trip id="402" depart="402.00" from="292932042#1" to="-30649101#0"/>
    <trip id="403" depart="403.00" from="30622468#0" to="1171563463"/>
    <trip id="404" depart="404.00" from="30622469#0" to="303442578#1"/>
    <trip id="405" depart="405.00" from="239610042#2" to="1171563461#4"/>
    <trip id="406" depart="406.00" from="-30649159#3" to="30664671#2"/>
    <trip id="407" depart="407.00" from="30649089" to="-444901317#2"/>
    <trip id="409" depart="409.00" from="30665288" to="30664671#3"/>
    <trip id="410" depart="410.00" from="462990973#1" to="127887326"/>
    <trip id="412" depart="412.00" from="81797004#4" to="261422558#4"/>
    <trip id="413" depart="413.00" from="-153357751#0" to="261422562#2"/>
    <trip id="414" depart="414.00" from="30649101#0" to="617806431#4"/>
    <trip id="415" depart="415.00" from="617806431#2" to="160391621#0"/>
    <trip id="416" depart="416.00" from="30621729#4" to="205366193#1"/>
    <trip id="417" depart="417.00" from="30664672#1" to="153357779#0"/>
    <trip id="419" depart="419.00" from="261422558#1" to="81753177#3"/>
    <trip id="420" depart="420.00" from="-82009801" to="30664670#1"/>
    <trip id="422" depart="422.00" from="616971271#0" to="616973573"/>
    <trip id="423" depart="423.00" from="127887329" to="1171563461#0"/>
    <trip id="424" depart="424.00" from="30664672#0" to="326104353"/>
    <trip id="425" depart="425.00" from="617806431#1" to="-153357789#0"/>
    <trip id="426" depart="426.00" from="-160391607#1" to="30649159#0"/>
    <trip id="427" depart="427.00" from="666426131#0" to="931172667"/>
    <trip id="428" depart="428.00" from="30665298#1" to="160391607#0"/>
    <trip id="429" depart="429.00" from="-261422558#4" to="30649159#1"/>
    <trip id="430" depart="430.00" from="617806431#1" to="160391621#3"/>
    <trip id="431" depart="431.00" from="30664670#0" to="659117933#7"/>
    <trip id="432" depart="432.00" from="-153357779#0" to="444901317#2"/>
    <trip id="433" depart="433.00" from="-616971271#2" to="127887321"/>
    <trip id="435" depart="435.00" from="30649088#0" to="444901317#1"/>
    <trip id="436" depart="436.00" from="-30649096#1" to="-261422558#1"/>
    <trip id="437" depart="437.00" from="617806431#1" to="30649096#1"/>
    <trip id="438" depart="438.00" from="-330213836" to="666426130"/>
    <trip id="439" depart="439.00" from="-30622469#1" to="239610042#0"/>
    <trip id="440" depart="440.00" from="-444901317#3" to="-616742655#0"/>
    <trip id="441" depart="441.00" from="-127887321" to="462990973#0"/>
    <trip id="442" depart="442.00" from="659117933#11" to="30664663"/>
    <trip id="443" depart="443.00" from="-30649092#0" to="160391621#0"/>
    <trip id="444" depart="444.00" from="1163801976" to="30622469#1"/>
    <trip id="445" depart="445.00" from="30655853#2" to="158030530#0"/>
    <trip id="446" depart="446.00" from="-444901317#3" to="616971271#0"/>
    <trip id="447" depart="447.00" from="-30655852#1" to="127887326"/>
    <trip id="449" depart="449.00" from="30649091#0" to="30621729#8"/>
    <trip id="450" depart="450.00" from="931164090#1" to="-659117933#9"/>
    <trip id="451" depart="451.00" from="81797004#1" to="30655852#1"/>
    <trip id="452" depart="452.00" from="-616742655#0" to="30621729#4"/>
    <trip id="453" depart="453.00" from="30664670#0" to="30665298#2"/>
    <trip id="454" depart="454.00" from="-153357784#1" to="30649091#1"/>
    <trip id="455" depart="455.00" from="299487097#2" to="659117933#8"/>
    <trip id="456" depart="456.00" from="-616971271#0" to="444901317#3"/>
    <trip id="457" depart="457.00" from="30649159#3" to="1171563463"/>